@<TRIPOS>MOLECULE
2QX
  110   115     1     0     0
SMALL
bcc


@<TRIPOS>ATOM
      1 O1          2.6690   -2.9460   -0.4130 o         1 2QX     -0.620500
      2 C7         -8.2260   12.7940   -4.7630 ca        1 2QX     -0.280600
      3 O2        -12.9040   13.4690   -2.2510 o         1 2QX     -0.411000
      4 C6         -8.0380   14.1890   -4.4710 ca        1 2QX      0.359200
      5 C1         -9.2390   15.5350   -8.8640 ca        1 2QX     -0.099000
      6 C5         -8.6400   14.8340   -6.6160 ca        1 2QX      0.387600
      7 C4         -8.8320   13.4700   -7.0090 ca        1 2QX     -0.152300
      8 C3         -9.2250   13.1720   -8.3390 ca        1 2QX     -0.116000
      9 C2         -9.4230   14.1850   -9.2460 ca        1 2QX     -0.100000
     10 C42       -11.6950   13.6380   -2.1880 c         1 2QX      0.606100
     11 O3        -11.0550   14.4600   -1.3290 os        1 2QX     -0.394900
     12 C43       -11.9110   15.2250   -0.4430 c3        1 2QX      0.129700
     13 C41       -10.1000   11.7690   -2.3940 c3        1 2QX      0.113800
     14 C10        -9.1620   10.9730   -3.3180 c3        1 2QX     -0.021400
     15 C9         -7.9330   11.7780   -3.7200 c3        1 2QX     -0.044100
     16 C8         -8.6050   12.4520   -6.0430 ca        1 2QX     -0.065000
     17 N          -8.2390   15.1660   -5.3350 nb        1 2QX     -0.625000
     18 C          -8.8590   15.8640   -7.5850 ca        1 2QX     -0.162300
     19 C11        -8.8250    9.6990   -2.6080 ca        1 2QX     -0.155300
     20 C16        -7.6230    9.5190   -1.9180 ca        1 2QX     -0.094000
     21 C15        -7.3270    8.3090   -1.2840 ca        1 2QX     -0.072300
     22 C14        -8.2530    7.2580   -1.3410 ca        1 2QX     -0.082000
     23 C13        -9.4570    7.4080   -2.0180 ca        1 2QX     -0.143000
     24 C12        -9.7490    8.6290   -2.6510 ca        1 2QX      0.119900
     25 F         -10.9290    8.7800   -3.3030 f         1 2QX     -0.143900
     26 C17        -6.0510    8.1420   -0.5350 c3        1 2QX     -0.044100
     27 C18        -5.1680    7.0600   -1.1300 c3        1 2QX     -0.076400
     28 C19        -3.9080    6.8830   -0.3090 c3        1 2QX     -0.081400
     29 C20        -3.0510    5.7590   -0.8510 c3        1 2QX     -0.076400
     30 C22        -0.9270    4.4920   -0.5240 ca        1 2QX     -0.089300
     31 C27        -0.2490    4.6190   -1.7430 ca        1 2QX     -0.102000
     32 C26         0.5790    3.6060   -2.2070 ca        1 2QX     -0.155500
     33 C25         0.7550    2.4220   -1.4500 ca        1 2QX      0.043600
     34 C24         0.0670    2.2930   -0.2290 ca        1 2QX     -0.155500
     35 C23        -0.7590    3.3210    0.2190 ca        1 2QX     -0.102000
     36 C28         1.9920    0.2520   -1.3560 c         1 2QX      0.644100
     37 O           1.6680   -0.0720   -0.1970 o         1 2QX     -0.605100
     38 C29         2.9440   -0.6720   -2.1820 c3        1 2QX      0.046700
     39 C30         2.1150   -1.7190   -2.9610 c3        1 2QX     -0.073700
     40 C35         3.0460   -2.6170   -3.7680 c3        1 2QX     -0.073900
     41 C34         2.2730   -3.6010   -4.6210 c3        1 2QX     -0.076400
     42 C33         1.3030   -2.8890   -5.5390 c3        1 2QX     -0.081400
     43 C32         0.3670   -2.0060   -4.7440 c3        1 2QX     -0.076400
     44 C31         1.1240   -1.0160   -3.8810 c3        1 2QX     -0.073900
     45 N2          3.9640   -1.2230   -1.2920 n         1 2QX     -0.430800
     46 C40         5.2610   -0.5720   -1.3080 c3        1 2QX      0.081000
     47 C39         6.0090   -0.5490    0.0190 c3        1 2QX     -0.098400
     48 C38         5.9460   -1.8950    0.7080 c3        1 2QX     -0.100400
     49 C37         4.4780   -2.2110    0.9660 c3        1 2QX      0.023500
     50 N3          4.2850   -3.5390    1.6360 n4        1 2QX     -0.833600
     51 C36         3.6230   -2.1480   -0.3350 c         1 2QX      0.714500
     52 H1         -7.6650   14.4940   -3.4740 h4        1 2QX      0.027100
     53 H2         -9.4010   16.3270   -9.6140 ha        1 2QX      0.158000
     54 H3          1.8800    1.5530   -2.9190 hn        1 2QX      0.322500
     55 H4         -9.3580   12.1190   -8.6300 ha        1 2QX      0.146000
     56 H5         -9.7230   13.9580  -10.2820 ha        1 2QX      0.156000
     57 H6        -11.1620   15.8150    0.1460 h1        1 2QX      0.090700
     58 H7        -12.5810   15.8800   -1.0490 h1        1 2QX      0.090700
     59 H8        -12.4990   14.5270    0.1990 h1        1 2QX      0.090700
     60 H9        -11.2520   12.6060   -3.9150 hn        1 2QX      0.482800
     61 H10       -10.9300   11.0900   -2.0370 hx        1 2QX      0.116700
     62 H11        -9.5320   12.1680   -1.5060 hx        1 2QX      0.116700
     63 H12        -9.7250   10.6960   -4.2600 hc        1 2QX      0.082700
     64 H13        -7.4860   12.2720   -2.8150 hc        1 2QX      0.079200
     65 H14        -7.1600   11.0640   -4.1210 hc        1 2QX      0.079200
     66 H15        -8.7230   11.3970   -6.3420 ha        1 2QX      0.151000
     67 H16        -8.7080   16.9160   -7.2930 ha        1 2QX      0.166000
     68 H17        -6.8910   10.3410   -1.8710 ha        1 2QX      0.142000
     69 H18        -8.0250    6.3030   -0.8400 ha        1 2QX      0.157000
     70 H19       -10.1860    6.5850   -2.0660 ha        1 2QX      0.168000
     71 H20        -6.2910    7.8790    0.5320 hc        1 2QX      0.057700
     72 H21        -5.4830    9.1110   -0.5160 hc        1 2QX      0.057700
     73 H22        -5.7330    6.0910   -1.1690 hc        1 2QX      0.047200
     74 H23        -4.8970    7.3290   -2.1850 hc        1 2QX      0.047200
     75 H24        -3.3210    7.8400   -0.3110 hc        1 2QX      0.044700
     76 H25        -4.1820    6.6650    0.7570 hc        1 2QX      0.044700
     77 H26        -2.7760    5.9700   -1.9180 hc        1 2QX      0.046200
     78 H27        -3.6350    4.8010   -0.8420 hc        1 2QX      0.046200
     79 H28        -1.2060    6.5570   -0.0460 hc        1 2QX      0.052700
     80 H29        -2.0720    5.4060    1.0470 hc        1 2QX      0.052700
     81 H30        -0.3710    5.5350   -2.3400 ha        1 2QX      0.139500
     82 H31         1.0970    3.7400   -3.1700 ha        1 2QX      0.150000
     83 H32         0.1700    1.3840    0.3860 ha        1 2QX      0.150000
     84 H33        -1.2870    3.2010    1.1780 ha        1 2QX      0.139500
     85 H34         3.5000   -0.0560   -2.9550 h1        1 2QX      0.080700
     86 H35         1.5350   -2.3510   -2.2310 hc        1 2QX      0.099700
     87 H36         3.7120   -3.1910   -3.0720 hc        1 2QX      0.038700
     88 H37         3.6990   -1.9850   -4.4260 hc        1 2QX      0.038700
     89 H38         1.7100   -4.3100   -3.9580 hc        1 2QX      0.051200
     90 H39         2.9930   -4.2080   -5.2290 hc        1 2QX      0.051200
     91 H40         0.7080   -3.6430   -6.1170 hc        1 2QX      0.051200
     92 H41         1.8710   -2.2680   -6.2810 hc        1 2QX      0.051200
     93 H42        -0.2840   -2.6450   -4.0900 hc        1 2QX      0.051200
     94 H43        -0.3050   -1.4420   -5.4420 hc        1 2QX      0.051200
     95 H44         0.3750   -0.4480   -3.2700 hc        1 2QX      0.038700
     96 H45         1.6680   -0.2870   -4.5380 hc        1 2QX      0.038700
     97 H46         5.8900   -1.1130   -2.0770 h1        1 2QX      0.073700
     98 H47         5.1380    0.4950   -1.6540 h1        1 2QX      0.073700
     99 H48         5.5870    0.2460    0.6900 hc        1 2QX      0.086200
    100 H49         7.0800   -0.2830   -0.1850 hc        1 2QX      0.086200
    101 H50         6.4160   -2.6790    0.0570 hc        1 2QX      0.077200
    102 H51         6.5180   -1.8560    1.6730 hc        1 2QX      0.077200
    103 H52         4.0300   -1.4260    1.6550 hx        1 2QX      0.141700
    104 H53         4.9150   -4.2350    1.2290 hn        1 2QX      0.470133
    105 H54         3.3080   -3.8460    1.4770 hn        1 2QX      0.470133
    106 H331        4.4680   -3.4590    2.6380 hn        1 2QX      0.470133
    107 H421       -9.9990   13.5950   -3.3900 hn        1 2QX      0.482800
    108 N1          1.6230    1.4330   -1.9620 n         1 2QX     -0.451100
    109 C21        -1.7900    5.5960   -0.0240 c3        1 2QX     -0.037100
    110 N4        -10.7360   12.9350   -3.0870 n4        1 2QX     -0.635800
@<TRIPOS>BOND
     1    1   51 2   
     2    2    4 ar  
     3    2   15 1   
     4    2   16 ar  
     5    3   10 2   
     6    4   17 ar  
     7    4   52 1   
     8    5    9 ar  
     9    5   18 ar  
    10    5   53 1   
    11    6    7 ar  
    12    6   17 ar  
    13    6   18 ar  
    14    7    8 ar  
    15    7   16 ar  
    16    8    9 ar  
    17    8   55 1   
    18    9   56 1   
    19   10   11 1   
    20   10  110 1   
    21   11   12 1   
    22   12   57 1   
    23   12   58 1   
    24   12   59 1   
    25   13   14 1   
    26   13   61 1   
    27   13   62 1   
    28   13  110 1   
    29   14   15 1   
    30   14   19 1   
    31   14   63 1   
    32   15   64 1   
    33   15   65 1   
    34   16   66 1   
    35   18   67 1   
    36   19   20 ar  
    37   19   24 ar  
    38   20   21 ar  
    39   20   68 1   
    40   21   22 ar  
    41   21   26 1   
    42   22   23 ar  
    43   22   69 1   
    44   23   24 ar  
    45   23   70 1   
    46   24   25 1   
    47   26   27 1   
    48   26   71 1   
    49   26   72 1   
    50   27   28 1   
    51   27   73 1   
    52   27   74 1   
    53   28   29 1   
    54   28   75 1   
    55   28   76 1   
    56   29   77 1   
    57   29   78 1   
    58   29  109 1   
    59   30   31 ar  
    60   30   35 ar  
    61   30  109 1   
    62   31   32 ar  
    63   31   81 1   
    64   32   33 ar  
    65   32   82 1   
    66   33   34 ar  
    67   33  108 1   
    68   34   35 ar  
    69   34   83 1   
    70   35   84 1   
    71   36   37 2   
    72   36   38 1   
    73   36  108 1   
    74   38   39 1   
    75   38   45 1   
    76   38   85 1   
    77   39   40 1   
    78   39   44 1   
    79   39   86 1   
    80   40   41 1   
    81   40   87 1   
    82   40   88 1   
    83   41   42 1   
    84   41   89 1   
    85   41   90 1   
    86   42   43 1   
    87   42   91 1   
    88   42   92 1   
    89   43   44 1   
    90   43   93 1   
    91   43   94 1   
    92   44   95 1   
    93   44   96 1   
    94   45   46 1   
    95   45   51 1   
    96   46   47 1   
    97   46   97 1   
    98   46   98 1   
    99   47   48 1   
   100   47   99 1   
   101   47  100 1   
   102   48   49 1   
   103   48  101 1   
   104   48  102 1   
   105   49   50 1   
   106   49   51 1   
   107   49  103 1   
   108   50  104 1   
   109   50  105 1   
   110   50  106 1   
   111   54  108 1   
   112   60  110 1   
   113   79  109 1   
   114   80  109 1   
   115  107  110 1   
@<TRIPOS>SUBSTRUCTURE
     1 2QX         1 TEMP              0 ****  ****    0 ROOT
