@<TRIPOS>MOLECULE
2R2
   48    50     1     0     0
SMALL
bcc


@<TRIPOS>ATOM
      1 FAF        -1.1270    0.4860   -0.8370 f         1 2R2     -0.230300
      2 CAD         0.0520    0.5670   -0.1380 c3        1 2R2      0.694200
      3 FAG        -0.3440    0.9390    1.1240 f         1 2R2     -0.230300
      4 FAE         0.4540   -0.7370    0.0200 f         1 2R2     -0.230300
      5 CAC         1.1040    1.4860   -0.7670 ca        1 2R2     -0.199300
      6 CAH         1.5300    2.5660   -0.0090 ca        1 2R2      0.030000
      7 CAB         1.6090    1.2280   -2.0680 ca        1 2R2      0.081700
      8 CAA         1.1360    0.0670   -2.8570 c3        1 2R2     -0.090800
      9 CAZ         2.5730    2.1040   -2.5920 ca        1 2R2     -0.165200
     10 NBA         3.1650    1.9170   -3.9420 no        1 2R2      0.315200
     11 OBB         2.8200    1.0060   -4.6420 o         1 2R2     -0.203500
     12 OBC         4.0030    2.7070   -4.3030 o         1 2R2     -0.203500
     13 CAY         3.0270    3.2170   -1.8500 ca        1 2R2     -0.081100
     14 CAI         2.4970    3.4420   -0.5350 ca        1 2R2      0.047400
     15 NAJ         3.0190    4.5660    0.1160 nc        1 2R2     -0.480100
     16 SAX         4.1370    4.4120   -2.2280 ss        1 2R2      0.232900
     17 CAK         3.8990    5.1520   -0.6890 cd        1 2R2      0.255200
     18 CAL         4.5800    6.4430   -0.3420 c         1 2R2      0.611800
     19 OAW         4.2930    7.4710   -0.9860 o         1 2R2     -0.581100
     20 NAM         5.5140    6.4480    0.6680 n         1 2R2     -0.452800
     21 CAV         5.8730    5.2890    1.4480 c3        1 2R2      0.094000
     22 CAU         7.3880    5.2070    1.7510 c3        1 2R2      0.158800
     23 NAP         7.9350    6.4570    2.2490 n3        1 2R2     -0.734600
     24 CAO         7.6120    7.5850    1.3910 c3        1 2R2      0.158800
     25 CAN         6.1020    7.7000    1.1000 c3        1 2R2      0.094000
     26 CAQ         9.3520    6.3730    2.5670 c3        1 2R2      0.172800
     27 CAR         9.7560    7.2600    3.7530 c3        1 2R2      0.129400
     28 OAS         9.6190    6.4560    4.9220 os        1 2R2     -0.419600
     29 CAT         9.8140    7.1910    6.1170 c3        1 2R2      0.116700
     30 H1          1.1210    2.7500    1.0020 ha        1 2R2      0.184000
     31 H2          1.9990   -0.6010   -3.1150 hc        1 2R2      0.081033
     32 H3          0.6800    0.4180   -3.8210 hc        1 2R2      0.081033
     33 H4          0.3740   -0.5430   -2.3150 hc        1 2R2      0.081033
     34 H5          5.5970    4.3450    0.9020 h1        1 2R2      0.064200
     35 H6          5.3060    5.3170    2.4230 h1        1 2R2      0.064200
     36 H7          7.5240    4.4250    2.5490 h1        1 2R2      0.041700
     37 H8          7.9230    4.8560    0.8210 h1        1 2R2      0.041700
     38 H10         8.1690    7.5390    0.4090 h1        1 2R2      0.041700
     39 H11         7.9270    8.5270    1.9220 h1        1 2R2      0.041700
     40 H12         5.9540    8.4820    0.3020 h1        1 2R2      0.064200
     41 H13         5.5710    8.0390    2.0360 h1        1 2R2      0.064200
     42 H14         9.9930    6.6690    1.6860 h1        1 2R2      0.047700
     43 H15         9.6090    5.3080    2.8380 h1        1 2R2      0.047700
     44 H16        10.8330    7.5610    3.6430 h1        1 2R2      0.032200
     45 H17         9.1230    8.1810    3.8400 h1        1 2R2      0.032200
     46 H18         9.6900    6.4360    6.9330 h1        1 2R2      0.032700
     47 H19         9.0480    8.0000    6.2130 h1        1 2R2      0.032700
     48 H20        10.8400    7.6340    6.1450 h1        1 2R2      0.032700
@<TRIPOS>BOND
     1    1    2 1   
     2    2    3 1   
     3    2    4 1   
     4    2    5 1   
     5    5    6 ar  
     6    5    7 ar  
     7    6   14 ar  
     8    6   30 1   
     9    7    8 1   
    10    7    9 ar  
    11    8   31 1   
    12    8   32 1   
    13    8   33 1   
    14    9   10 1   
    15    9   13 ar  
    16   10   11 1   
    17   10   12 1   
    18   13   14 ar  
    19   13   16 1   
    20   14   15 1   
    21   15   17 2   
    22   16   17 1   
    23   17   18 1   
    24   18   19 2   
    25   18   20 1   
    26   20   21 1   
    27   20   25 1   
    28   21   22 1   
    29   21   34 1   
    30   21   35 1   
    31   22   23 1   
    32   22   36 1   
    33   22   37 1   
    34   23   24 1   
    35   23   26 1   
    36   24   25 1   
    37   24   38 1   
    38   24   39 1   
    39   25   40 1   
    40   25   41 1   
    41   26   27 1   
    42   26   42 1   
    43   26   43 1   
    44   27   28 1   
    45   27   44 1   
    46   27   45 1   
    47   28   29 1   
    48   29   46 1   
    49   29   47 1   
    50   29   48 1   
@<TRIPOS>SUBSTRUCTURE
     1 2R2         1 TEMP              0 ****  ****    0 ROOT
