@<TRIPOS>MOLECULE
2R2
   48    50     1     0     0
SMALL
bcc


@<TRIPOS>ATOM
      1 FAF        -1.1420    0.5020   -0.8240 f         1 2R2     -0.230300
      2 CAD         0.0360    0.5830   -0.1230 c3        1 2R2      0.694200
      3 FAG        -0.3600    0.9640    1.1360 f         1 2R2     -0.230300
      4 FAE         0.4330   -0.7220    0.0430 f         1 2R2     -0.230300
      5 CAC         1.0940    1.4940   -0.7550 ca        1 2R2     -0.199300
      6 CAH         1.5220    2.5760   -0.0030 ca        1 2R2      0.030000
      7 CAB         1.6000    1.2260   -2.0540 ca        1 2R2      0.081700
      8 CAA         1.1240    0.0630   -2.8370 c3        1 2R2     -0.090800
      9 CAZ         2.5690    2.0960   -2.5820 ca        1 2R2     -0.165200
     10 NBA         3.1630    1.8980   -3.9290 no        1 2R2      0.315200
     11 OBB         2.8150    0.9850   -4.6240 o         1 2R2     -0.203500
     12 OBC         4.0040    2.6830   -4.2930 o         1 2R2     -0.203500
     13 CAY         3.0260    3.2110   -1.8450 ca        1 2R2     -0.081100
     14 CAI         2.4930    3.4460   -0.5320 ca        1 2R2      0.047400
     15 NAJ         3.0190    4.5710    0.1130 nc        1 2R2     -0.480100
     16 SAX         4.1400    4.3990   -2.2270 ss        1 2R2      0.232900
     17 CAK         3.9020    5.1500   -0.6940 cd        1 2R2      0.255200
     18 CAL         4.5880    6.4390   -0.3530 c         1 2R2      0.611800
     19 OAW         4.3070    7.4650   -1.0030 o         1 2R2     -0.581100
     20 NAM         5.5200    6.4470    0.6590 n         1 2R2     -0.452800
     21 CAV         5.8740    5.2910    1.4460 c3        1 2R2      0.094000
     22 CAU         7.3880    5.2050    1.7510 c3        1 2R2      0.158800
     23 NAP         7.9400    6.4550    2.2430 n3        1 2R2     -0.734600
     24 CAO         7.6220    7.5800    1.3780 c3        1 2R2      0.158800
     25 CAN         6.1130    7.6990    1.0850 c3        1 2R2      0.094000
     26 CAQ         9.3560    6.3670    2.5620 c3        1 2R2      0.172800
     27 CAR         9.7630    7.2590    3.7430 c3        1 2R2      0.129400
     28 OAS         9.6220    6.4620    4.9170 os        1 2R2     -0.419600
     29 CAT         9.8200    7.2030    6.1070 c3        1 2R2      0.116700
     30 H1          1.1120    2.7680    1.0060 ha        1 2R2      0.184000
     31 H2          0.3590   -0.5410   -2.2930 hc        1 2R2      0.081033
     32 H3          1.9850   -0.6100   -3.0900 hc        1 2R2      0.081033
     33 H4          0.6720    0.4100   -3.8040 hc        1 2R2      0.081033
     34 H5          5.5950    4.3450    0.9050 h1        1 2R2      0.064200
     35 H6          5.3060    5.3260    2.4200 h1        1 2R2      0.064200
     36 H7          7.9230    4.8460    0.8230 h1        1 2R2      0.041700
     37 H8          7.5210    4.4260    2.5530 h1        1 2R2      0.041700
     38 H10         7.9400    8.5230    1.9040 h1        1 2R2      0.041700
     39 H11         8.1800    7.5270    0.3970 h1        1 2R2      0.041700
     40 H12         5.5820    8.0450    2.0180 h1        1 2R2      0.064200
     41 H13         5.9680    8.4770    0.2820 h1        1 2R2      0.064200
     42 H14         9.6090    5.3030    2.8390 h1        1 2R2      0.047700
     43 H15         9.9990    6.6560    1.6790 h1        1 2R2      0.047700
     44 H16        10.8410    7.5560    3.6320 h1        1 2R2      0.032200
     45 H17         9.1340    8.1830    3.8250 h1        1 2R2      0.032200
     46 H18         9.6930    6.4530    6.9280 h1        1 2R2      0.032700
     47 H19         9.0570    8.0160    6.1990 h1        1 2R2      0.032700
     48 H20        10.8480    7.6430    6.1330 h1        1 2R2      0.032700
@<TRIPOS>BOND
     1    1    2 1   
     2    2    3 1   
     3    2    4 1   
     4    2    5 1   
     5    5    6 ar  
     6    5    7 ar  
     7    6   14 ar  
     8    6   30 1   
     9    7    8 1   
    10    7    9 ar  
    11    8   31 1   
    12    8   32 1   
    13    8   33 1   
    14    9   10 1   
    15    9   13 ar  
    16   10   11 1   
    17   10   12 1   
    18   13   14 ar  
    19   13   16 1   
    20   14   15 1   
    21   15   17 2   
    22   16   17 1   
    23   17   18 1   
    24   18   19 2   
    25   18   20 1   
    26   20   21 1   
    27   20   25 1   
    28   21   22 1   
    29   21   34 1   
    30   21   35 1   
    31   22   23 1   
    32   22   36 1   
    33   22   37 1   
    34   23   24 1   
    35   23   26 1   
    36   24   25 1   
    37   24   38 1   
    38   24   39 1   
    39   25   40 1   
    40   25   41 1   
    41   26   27 1   
    42   26   42 1   
    43   26   43 1   
    44   27   28 1   
    45   27   44 1   
    46   27   45 1   
    47   28   29 1   
    48   29   46 1   
    49   29   47 1   
    50   29   48 1   
@<TRIPOS>SUBSTRUCTURE
     1 2R2         1 TEMP              0 ****  ****    0 ROOT
