@<TRIPOS>MOLECULE
2R4
   49    54     1     0     0
SMALL
bcc


@<TRIPOS>ATOM
      1 O01        -0.2280   -0.0950    0.2900 o         1 2R4     -0.556100
      2 C02         0.9970   -0.1500    0.1010 c         1 2R4      0.600900
      3 C03         1.9750    0.3320    1.0910 ca        1 2R4     -0.211600
      4 C04         3.3480    0.2440    0.8200 ca        1 2R4      0.162100
      5 C05         4.3140    0.6800    1.7580 cp        1 2R4     -0.070000
      6 C06         5.7500    0.5620    1.5100 cp        1 2R4     -0.003000
      7 C07         6.2950   -0.6470    1.0620 ca        1 2R4     -0.101000
      8 C08         7.6690   -0.7860    0.8450 ca        1 2R4     -0.140000
      9 C09         8.5340    0.2810    1.0640 ca        1 2R4     -0.086000
     10 C10         8.0120    1.4960    1.5070 cp        1 2R4     -0.052000
     11 C11         6.6160    1.6410    1.7380 ca        1 2R4     -0.034100
     12 S12         6.2290    3.2060    2.2810 ss        1 2R4      0.003200
     13 C13         7.8380    3.7470    2.2280 ca        1 2R4     -0.050100
     14 C14         8.7250    2.7260    1.7920 cp        1 2R4     -0.053000
     15 C15        10.0930    2.9820    1.6870 ca        1 2R4     -0.090000
     16 C16        10.5730    4.2460    2.0140 ca        1 2R4     -0.132000
     17 C17         9.6980    5.2530    2.4430 ca        1 2R4     -0.116000
     18 C18         8.3320    5.0110    2.5520 ca        1 2R4     -0.099000
     19 C19         3.8530    1.2260    2.9600 ca        1 2R4     -0.075000
     20 C20         2.4880    1.3220    3.2380 ca        1 2R4     -0.162000
     21 C21         1.5530    0.8740    2.3130 ca        1 2R4     -0.043000
     22 O22         3.8490   -0.2470   -0.3760 os        1 2R4     -0.248200
     23 C23         2.9330   -0.7230   -1.3180 cc        1 2R4      0.330100
     24 N24         3.5730   -1.3020   -2.4290 nh        1 2R4     -0.613400
     25 C25         3.0050   -0.9880   -3.7360 c3        1 2R4      0.143800
     26 C26         3.6670    0.2070   -4.4360 c3        1 2R4      0.094400
     27 O27         5.0830    0.0740   -4.4760 os        1 2R4     -0.409600
     28 C28         5.6500   -0.1080   -3.1820 c3        1 2R4      0.094400
     29 C29         5.0300   -1.3150   -2.4670 c3        1 2R4      0.143800
     30 C30         1.5840   -0.6990   -1.1100 cd        1 2R4     -0.380200
     31 H071        5.6230   -1.5000    0.8780 ha        1 2R4      0.143000
     32 H081        8.0670   -1.7520    0.5010 ha        1 2R4      0.135000
     33 H091        9.6150    0.1750    0.8930 ha        1 2R4      0.138000
     34 H151       10.7780    2.1900    1.3500 ha        1 2R4      0.136000
     35 H161       11.6490    4.4600    1.9350 ha        1 2R4      0.135000
     36 H171       10.0970    6.2470    2.6960 ha        1 2R4      0.135000
     37 H181        7.6500    5.8050    2.8880 ha        1 2R4      0.140000
     38 H191        4.5890    1.5850    3.7000 ha        1 2R4      0.151000
     39 H201        2.1560    1.7520    4.1950 ha        1 2R4      0.145000
     40 H211        0.4710    0.9360    2.5160 ha        1 2R4      0.164000
     41 H252        3.1580   -1.9100   -4.3660 h1        1 2R4      0.076950
     42 H251        1.9010   -0.7930   -3.6510 h1        1 2R4      0.076950
     43 H261        3.3600    0.2410   -5.5150 h1        1 2R4      0.062700
     44 H262        3.3940    1.1700   -3.9290 h1        1 2R4      0.062700
     45 H282        6.7390   -0.2890   -3.3790 h1        1 2R4      0.062700
     46 H281        5.5160    0.8260   -2.5750 h1        1 2R4      0.062700
     47 H291        5.4510   -1.3830   -1.4260 h1        1 2R4      0.076950
     48 H292        5.3090   -2.2530   -3.0280 h1        1 2R4      0.076950
     49 H301        0.8800   -1.1120   -1.8470 ha        1 2R4      0.170000
@<TRIPOS>BOND
     1    1    2 2   
     2    2    3 1   
     3    2   30 1   
     4    3    4 ar  
     5    3   21 ar  
     6    4    5 ar  
     7    4   22 1   
     8    5    6 1   
     9    5   19 ar  
    10    6    7 ar  
    11    6   11 ar  
    12    7    8 ar  
    13    7   31 1   
    14    8    9 ar  
    15    8   32 1   
    16    9   10 ar  
    17    9   33 1   
    18   10   11 ar  
    19   10   14 1   
    20   11   12 1   
    21   12   13 1   
    22   13   14 ar  
    23   13   18 ar  
    24   14   15 ar  
    25   15   16 ar  
    26   15   34 1   
    27   16   17 ar  
    28   16   35 1   
    29   17   18 ar  
    30   17   36 1   
    31   18   37 1   
    32   19   20 ar  
    33   19   38 1   
    34   20   21 ar  
    35   20   39 1   
    36   21   40 1   
    37   22   23 1   
    38   23   24 1   
    39   23   30 2   
    40   24   25 1   
    41   24   29 1   
    42   25   26 1   
    43   25   41 1   
    44   25   42 1   
    45   26   27 1   
    46   26   43 1   
    47   26   44 1   
    48   27   28 1   
    49   28   29 1   
    50   28   45 1   
    51   28   46 1   
    52   29   47 1   
    53   29   48 1   
    54   30   49 1   
@<TRIPOS>SUBSTRUCTURE
     1 2R4         1 TEMP              0 ****  ****    0 ROOT
