@<TRIPOS>MOLECULE
2R4
   49    54     1     0     0
SMALL
bcc


@<TRIPOS>ATOM
      1 O01        -0.2310   -0.0740    0.2950 o         1 2R4     -0.556100
      2 C02         0.9940   -0.1350    0.1060 c         1 2R4      0.600900
      3 C03         1.9720    0.3500    1.0940 ca        1 2R4     -0.211600
      4 C04         3.3460    0.2550    0.8240 ca        1 2R4      0.162100
      5 C05         4.3130    0.6950    1.7590 cp        1 2R4     -0.070000
      6 C06         5.7480    0.5700    1.5120 cp        1 2R4     -0.003000
      7 C07         6.2890   -0.6440    1.0740 ca        1 2R4     -0.101000
      8 C08         7.6630   -0.7890    0.8580 ca        1 2R4     -0.140000
      9 C09         8.5320    0.2770    1.0690 ca        1 2R4     -0.086000
     10 C10         8.0130    1.4970    1.5040 cp        1 2R4     -0.052000
     11 C11         6.6180    1.6470    1.7330 ca        1 2R4     -0.034100
     12 S12         6.2360    3.2180    2.2650 ss        1 2R4      0.003200
     13 C13         7.8470    3.7530    2.2080 ca        1 2R4     -0.050100
     14 C14         8.7300    2.7250    1.7800 cp        1 2R4     -0.053000
     15 C15        10.0990    2.9760    1.6730 ca        1 2R4     -0.090000
     16 C16        10.5830    4.2410    1.9910 ca        1 2R4     -0.132000
     17 C17         9.7120    5.2540    2.4120 ca        1 2R4     -0.116000
     18 C18         8.3450    5.0170    2.5230 ca        1 2R4     -0.099000
     19 C19         3.8530    1.2500    2.9580 ca        1 2R4     -0.075000
     20 C20         2.4890    1.3520    3.2350 ca        1 2R4     -0.162000
     21 C21         1.5520    0.9020    2.3120 ca        1 2R4     -0.043000
     22 O22         3.8450   -0.2450   -0.3680 os        1 2R4     -0.248200
     23 C23         2.9280   -0.7230   -1.3080 cc        1 2R4      0.330100
     24 N24         3.5660   -1.3120   -2.4150 nh        1 2R4     -0.613400
     25 C25         3.0000   -1.0030   -3.7240 c3        1 2R4      0.143800
     26 C26         3.6670    0.1840   -4.4310 c3        1 2R4      0.094400
     27 O27         5.0830    0.0450   -4.4690 os        1 2R4     -0.409600
     28 C28         5.6480   -0.1310   -3.1740 c3        1 2R4      0.094400
     29 C29         5.0230   -1.3310   -2.4520 c3        1 2R4      0.143800
     30 C30         1.5790   -0.6930   -1.1000 cd        1 2R4     -0.380200
     31 H071        5.6140   -1.4960    0.8950 ha        1 2R4      0.143000
     32 H081        8.0580   -1.7590    0.5210 ha        1 2R4      0.135000
     33 H091        9.6120    0.1650    0.8990 ha        1 2R4      0.138000
     34 H151       10.7810    2.1800    1.3420 ha        1 2R4      0.136000
     35 H161       11.6600    4.4510    1.9100 ha        1 2R4      0.135000
     36 H171       10.1140    6.2480    2.6580 ha        1 2R4      0.135000
     37 H181        7.6660    5.8160    2.8530 ha        1 2R4      0.140000
     38 H191        4.5900    1.6110    3.6960 ha        1 2R4      0.151000
     39 H201        2.1580    1.7900    4.1890 ha        1 2R4      0.145000
     40 H211        0.4700    0.9690    2.5150 ha        1 2R4      0.164000
     41 H252        3.1500   -1.9310   -4.3480 h1        1 2R4      0.076950
     42 H251        1.8970   -0.8030   -3.6410 h1        1 2R4      0.076950
     43 H261        3.3610    0.2130   -5.5100 h1        1 2R4      0.062700
     44 H262        3.3980    1.1510   -3.9300 h1        1 2R4      0.062700
     45 H282        6.7370   -0.3180   -3.3690 h1        1 2R4      0.062700
     46 H281        5.5180    0.8070   -2.5730 h1        1 2R4      0.062700
     47 H291        5.2980   -2.2740   -3.0060 h1        1 2R4      0.076950
     48 H292        5.4430   -1.3940   -1.4100 h1        1 2R4      0.076950
     49 H301        0.8740   -1.1090   -1.8350 ha        1 2R4      0.170000
@<TRIPOS>BOND
     1    1    2 2   
     2    2    3 1   
     3    2   30 1   
     4    3    4 ar  
     5    3   21 ar  
     6    4    5 ar  
     7    4   22 1   
     8    5    6 1   
     9    5   19 ar  
    10    6    7 ar  
    11    6   11 ar  
    12    7    8 ar  
    13    7   31 1   
    14    8    9 ar  
    15    8   32 1   
    16    9   10 ar  
    17    9   33 1   
    18   10   11 ar  
    19   10   14 1   
    20   11   12 1   
    21   12   13 1   
    22   13   14 ar  
    23   13   18 ar  
    24   14   15 ar  
    25   15   16 ar  
    26   15   34 1   
    27   16   17 ar  
    28   16   35 1   
    29   17   18 ar  
    30   17   36 1   
    31   18   37 1   
    32   19   20 ar  
    33   19   38 1   
    34   20   21 ar  
    35   20   39 1   
    36   21   40 1   
    37   22   23 1   
    38   23   24 1   
    39   23   30 2   
    40   24   25 1   
    41   24   29 1   
    42   25   26 1   
    43   25   41 1   
    44   25   42 1   
    45   26   27 1   
    46   26   43 1   
    47   26   44 1   
    48   27   28 1   
    49   28   29 1   
    50   28   45 1   
    51   28   46 1   
    52   29   47 1   
    53   29   48 1   
    54   30   49 1   
@<TRIPOS>SUBSTRUCTURE
     1 2R4         1 TEMP              0 ****  ****    0 ROOT
