@<TRIPOS>MOLECULE
2R4
   49    54     1     0     0
SMALL
bcc


@<TRIPOS>ATOM
      1 O01        -0.2260   -0.1020    0.2990 o         1 2R4     -0.556100
      2 C02         0.9990   -0.1570    0.1090 c         1 2R4      0.600900
      3 C03         1.9760    0.3330    1.0970 ca        1 2R4     -0.211600
      4 C04         3.3490    0.2450    0.8260 ca        1 2R4      0.162100
      5 C05         4.3150    0.6890    1.7600 cp        1 2R4     -0.070000
      6 C06         5.7510    0.5700    1.5120 cp        1 2R4     -0.003000
      7 C07         6.2980   -0.6400    1.0710 ca        1 2R4     -0.101000
      8 C08         7.6720   -0.7780    0.8550 ca        1 2R4     -0.140000
      9 C09         8.5360    0.2910    1.0660 ca        1 2R4     -0.086000
     10 C10         8.0110    1.5090    1.5020 cp        1 2R4     -0.052000
     11 C11         6.6160    1.6520    1.7320 ca        1 2R4     -0.034100
     12 S12         6.2270    3.2210    2.2660 ss        1 2R4      0.003200
     13 C13         7.8350    3.7640    2.2080 ca        1 2R4     -0.050100
     14 C14         8.7220    2.7410    1.7790 cp        1 2R4     -0.053000
     15 C15        10.0900    2.9980    1.6710 ca        1 2R4     -0.090000
     16 C16        10.5680    4.2660    1.9890 ca        1 2R4     -0.132000
     17 C17         9.6920    5.2740    2.4120 ca        1 2R4     -0.116000
     18 C18         8.3270    5.0300    2.5240 ca        1 2R4     -0.099000
     19 C19         3.8540    1.2410    2.9590 ca        1 2R4     -0.075000
     20 C20         2.4890    1.3360    3.2370 ca        1 2R4     -0.162000
     21 C21         1.5540    0.8820    2.3160 ca        1 2R4     -0.043000
     22 O22         3.8500   -0.2520   -0.3680 os        1 2R4     -0.248200
     23 C23         2.9340   -0.7340   -1.3070 cc        1 2R4      0.330100
     24 N24         3.5750   -1.3190   -2.4150 nh        1 2R4     -0.613400
     25 C25         3.0060   -1.0130   -3.7240 c3        1 2R4      0.143800
     26 C26         3.6660    0.1790   -4.4310 c3        1 2R4      0.094400
     27 O27         5.0830    0.0460   -4.4700 os        1 2R4     -0.409600
     28 C28         5.6500   -0.1270   -3.1750 c3        1 2R4      0.094400
     29 C29         5.0320   -1.3310   -2.4530 c3        1 2R4      0.143800
     30 C30         1.5850   -0.7110   -1.0980 cd        1 2R4     -0.380200
     31 H071        5.6270   -1.4960    0.8930 ha        1 2R4      0.143000
     32 H081        8.0710   -1.7460    0.5160 ha        1 2R4      0.135000
     33 H091        9.6170    0.1860    0.8950 ha        1 2R4      0.138000
     34 H151       10.7760    2.2060    1.3390 ha        1 2R4      0.136000
     35 H161       11.6440    4.4810    1.9080 ha        1 2R4      0.135000
     36 H171       10.0900    6.2690    2.6590 ha        1 2R4      0.135000
     37 H181        7.6440    5.8250    2.8560 ha        1 2R4      0.140000
     38 H191        4.5900    1.6050    3.6970 ha        1 2R4      0.151000
     39 H201        2.1570    1.7710    4.1920 ha        1 2R4      0.145000
     40 H211        0.4720    0.9430    2.5190 ha        1 2R4      0.164000
     41 H252        3.1600   -1.9390   -4.3480 h1        1 2R4      0.076950
     42 H251        1.9020   -0.8190   -3.6390 h1        1 2R4      0.076950
     43 H261        3.3590    0.2060   -5.5090 h1        1 2R4      0.062700
     44 H262        3.3930    1.1440   -3.9290 h1        1 2R4      0.062700
     45 H282        5.5160    0.8100   -2.5740 h1        1 2R4      0.062700
     46 H281        6.7390   -0.3080   -3.3720 h1        1 2R4      0.062700
     47 H291        5.3110   -2.2720   -3.0090 h1        1 2R4      0.076950
     48 H292        5.4530   -1.3920   -1.4120 h1        1 2R4      0.076950
     49 H301        0.8820   -1.1290   -1.8330 ha        1 2R4      0.170000
@<TRIPOS>BOND
     1    1    2 2   
     2    2    3 1   
     3    2   30 1   
     4    3    4 ar  
     5    3   21 ar  
     6    4    5 ar  
     7    4   22 1   
     8    5    6 1   
     9    5   19 ar  
    10    6    7 ar  
    11    6   11 ar  
    12    7    8 ar  
    13    7   31 1   
    14    8    9 ar  
    15    8   32 1   
    16    9   10 ar  
    17    9   33 1   
    18   10   11 ar  
    19   10   14 1   
    20   11   12 1   
    21   12   13 1   
    22   13   14 ar  
    23   13   18 ar  
    24   14   15 ar  
    25   15   16 ar  
    26   15   34 1   
    27   16   17 ar  
    28   16   35 1   
    29   17   18 ar  
    30   17   36 1   
    31   18   37 1   
    32   19   20 ar  
    33   19   38 1   
    34   20   21 ar  
    35   20   39 1   
    36   21   40 1   
    37   22   23 1   
    38   23   24 1   
    39   23   30 2   
    40   24   25 1   
    41   24   29 1   
    42   25   26 1   
    43   25   41 1   
    44   25   42 1   
    45   26   27 1   
    46   26   43 1   
    47   26   44 1   
    48   27   28 1   
    49   28   29 1   
    50   28   45 1   
    51   28   46 1   
    52   29   47 1   
    53   29   48 1   
    54   30   49 1   
@<TRIPOS>SUBSTRUCTURE
     1 2R4         1 TEMP              0 ****  ****    0 ROOT
