@<TRIPOS>MOLECULE
2R5
   70    73     1     0     0
SMALL
bcc


@<TRIPOS>ATOM
      1 C01         0.1010   -0.2690   -0.1040 c3        1 2R5     -0.036800
      2 C02         1.5730   -0.3190   -0.1270 ca        1 2R5     -0.385900
      3 C03         2.3850   -0.0660    1.0190 ca        1 2R5      0.679200
      4 N04         1.7330    0.2740    2.2340 nu        1 2R5     -0.724300
      5 C05         2.4230    0.5140    3.4290 ca        1 2R5      0.160600
      6 C06         3.5350    1.3980    3.4810 ca        1 2R5     -0.002000
      7 C07         4.1570    1.6720    4.6950 ca        1 2R5     -0.133000
      8 C08         3.6960    1.1070    5.8770 ca        1 2R5     -0.020000
      9 C09         2.5820    0.2470    5.8700 ca        1 2R5     -0.510500
     10 C10         1.9650   -0.0450    4.6370 ca        1 2R5     -0.078000
     11 S11         2.0830   -0.4720    7.2200 sy        1 2R5      1.485200
     12 O12         1.1960   -1.5150    7.0240 o         1 2R5     -0.575300
     13 O13         3.0210   -0.5080    8.2320 o         1 2R5     -0.575300
     14 N14         0.8890    0.9130    7.7540 ny        1 2R5     -0.705900
     15 C15         0.5450    1.0140    9.2290 c3        1 2R5      0.158200
     16 C16         1.7090    1.6370   10.0050 c3        1 2R5     -0.132100
     17 C17        -0.6930    1.9030    9.4050 c3        1 2R5     -0.132100
     18 C18         0.2380   -0.3760    9.7930 c3        1 2R5     -0.132100
     19 N19         3.7460   -0.1190    0.9730 nb        1 2R5     -0.822000
     20 C20         4.3210   -0.4480   -0.2470 ca        1 2R5      0.904900
     21 N21         5.7140   -0.6100   -0.2490 nu        1 2R5     -0.698300
     22 C22         6.4620   -0.6120   -1.4550 ca        1 2R5      0.073600
     23 C23         7.4480    0.3710   -1.6720 ca        1 2R5     -0.092000
     24 C24         8.2450    0.3380   -2.8120 ca        1 2R5     -0.169500
     25 C25         8.0550   -0.6760   -3.7570 ca        1 2R5      0.136100
     26 O26         8.7770   -0.8120   -4.9240 os        1 2R5     -0.326900
     27 C27         9.7730    0.1900   -5.1620 c3        1 2R5      0.102400
     28 C28        10.3930   -0.2040   -6.5180 c3        1 2R5      0.036300
     29 N29        11.4280    0.6820   -6.9460 na        1 2R5     -0.077100
     30 C30        12.7800    0.5820   -6.6030 cc        1 2R5     -0.163300
     31 C31        13.4550    1.6830   -7.1400 cd        1 2R5     -0.190000
     32 C32        12.4810    2.4930   -7.8180 cd        1 2R5     -0.190000
     33 C33        11.2420    1.8610   -7.6750 cc        1 2R5     -0.163300
     34 C34         7.0710   -1.6640   -3.5570 ca        1 2R5     -0.169500
     35 C35         6.2860   -1.6330   -2.4140 ca        1 2R5     -0.092000
     36 N36         3.6020   -0.6900   -1.4150 nb        1 2R5     -0.724000
     37 C37         2.2730   -0.6190   -1.3170 ca        1 2R5      0.491200
     38 H1         -0.3180   -0.4500   -1.1260 hc        1 2R5      0.047700
     39 H2         -0.3150   -1.0530    0.5790 hc        1 2R5      0.047700
     40 H3         -0.2610    0.7310    0.2440 hc        1 2R5      0.047700
     41 H4          0.8540   -0.1950    2.3400 hn        1 2R5      0.436800
     42 H5          3.9120    1.8770    2.5590 ha        1 2R5      0.187000
     43 H6          5.0310    2.3470    4.7160 ha        1 2R5      0.171000
     44 H7          4.2190    1.3160    6.8270 ha        1 2R5      0.163000
     45 H8          1.1130   -0.7520    4.6310 ha        1 2R5      0.161000
     46 H9          1.2510    1.8200    7.4680 hn        1 2R5      0.441300
     47 H10         1.9350    2.6670    9.6380 hc        1 2R5      0.075367
     48 H11         1.4130    1.7070   11.0820 hc        1 2R5      0.075367
     49 H12         2.6310    1.0060    9.9410 hc        1 2R5      0.075367
     50 H13        -0.9150    1.9950   10.4970 hc        1 2R5      0.075367
     51 H14        -0.5170    2.9280    8.9980 hc        1 2R5      0.075367
     52 H15        -1.5860    1.4540    8.9060 hc        1 2R5      0.075367
     53 H16        -0.5620   -0.8920    9.2080 hc        1 2R5      0.075367
     54 H17        -0.1190   -0.2580   10.8460 hc        1 2R5      0.075367
     55 H18         1.1550   -1.0170    9.8110 hc        1 2R5      0.075367
     56 H19         6.1950   -0.2230    0.5370 hn        1 2R5      0.438800
     57 H20         7.6080    1.1770   -0.9390 ha        1 2R5      0.143000
     58 H21         9.0110    1.1130   -2.9550 ha        1 2R5      0.153000
     59 H22         9.2920    1.2000   -5.2110 h1        1 2R5      0.052200
     60 H23        10.5370    0.1660   -4.3420 h1        1 2R5      0.052200
     61 H24        10.8120   -1.2460   -6.4280 h1        1 2R5      0.075700
     62 H25         9.5750   -0.2180   -7.2930 h1        1 2R5      0.075700
     63 H26        13.1570   -0.2650   -6.0290 h4        1 2R5      0.164000
     64 H27        14.5190    1.8860   -7.0660 ha        1 2R5      0.155000
     65 H28        12.6750    3.4190   -8.3500 ha        1 2R5      0.155000
     66 H29        10.2590    2.1460   -8.0480 h4        1 2R5      0.164000
     67 H30         6.9370   -2.4540   -4.3110 ha        1 2R5      0.153000
     68 H31         5.5220   -2.4130   -2.2670 ha        1 2R5      0.143000
     69 H32         1.7160   -0.8130   -2.2550 h4        1 2R5      0.043100
     70 H142        0.0090    0.7680    7.2610 hn        1 2R5      0.441300
@<TRIPOS>BOND
     1    1    2 1   
     2    1   38 1   
     3    1   39 1   
     4    1   40 1   
     5    2    3 ar  
     6    2   37 ar  
     7    3    4 1   
     8    3   19 ar  
     9    4    5 1   
    10    4   41 1   
    11    5    6 ar  
    12    5   10 ar  
    13    6    7 ar  
    14    6   42 1   
    15    7    8 ar  
    16    7   43 1   
    17    8    9 ar  
    18    8   44 1   
    19    9   10 ar  
    20    9   11 1   
    21   10   45 1   
    22   11   12 2   
    23   11   13 2   
    24   11   14 1   
    25   14   15 1   
    26   14   46 1   
    27   14   70 1   
    28   15   16 1   
    29   15   17 1   
    30   15   18 1   
    31   16   47 1   
    32   16   48 1   
    33   16   49 1   
    34   17   50 1   
    35   17   51 1   
    36   17   52 1   
    37   18   53 1   
    38   18   54 1   
    39   18   55 1   
    40   19   20 ar  
    41   20   21 1   
    42   20   36 ar  
    43   21   22 1   
    44   21   56 1   
    45   22   23 ar  
    46   22   35 ar  
    47   23   24 ar  
    48   23   57 1   
    49   24   25 ar  
    50   24   58 1   
    51   25   26 1   
    52   25   34 ar  
    53   26   27 1   
    54   27   28 1   
    55   27   59 1   
    56   27   60 1   
    57   28   29 1   
    58   28   61 1   
    59   28   62 1   
    60   29   30 1   
    61   29   33 1   
    62   30   31 2   
    63   30   63 1   
    64   31   32 1   
    65   31   64 1   
    66   32   33 2   
    67   32   65 1   
    68   33   66 1   
    69   34   35 ar  
    70   34   67 1   
    71   35   68 1   
    72   36   37 ar  
    73   37   69 1   
@<TRIPOS>SUBSTRUCTURE
     1 2R5         1 TEMP              0 ****  ****    0 ROOT
