@<TRIPOS>MOLECULE
2R5
   70    73     1     0     0
SMALL
bcc


@<TRIPOS>ATOM
      1 C01         0.1040   -0.2830   -0.0980 c3        1 2R5     -0.036800
      2 C02         1.5760   -0.3300   -0.1220 ca        1 2R5     -0.385900
      3 C03         2.3880   -0.0720    1.0230 ca        1 2R5      0.679200
      4 N04         1.7360    0.2700    2.2370 nh        1 2R5     -0.725300
      5 C05         2.4270    0.5140    3.4320 ca        1 2R5      0.160600
      6 C06         3.5370    1.4010    3.4810 ca        1 2R5     -0.002000
      7 C07         4.1600    1.6790    4.6930 ca        1 2R5     -0.133000
      8 C08         3.6990    1.1170    5.8770 ca        1 2R5     -0.020000
      9 C09         2.5860    0.2550    5.8730 ca        1 2R5     -0.510500
     10 C10         1.9700   -0.0420    4.6410 ca        1 2R5     -0.078000
     11 S11         2.0900   -0.4610    7.2260 sy        1 2R5      1.485200
     12 O12         1.2050   -1.5050    7.0330 o         1 2R5     -0.575300
     13 O13         3.0270   -0.4910    8.2380 o         1 2R5     -0.575300
     14 N14         0.8930    0.9240    7.7550 n4        1 2R5     -0.705900
     15 C15         0.5470    1.0280    9.2300 c3        1 2R5      0.158200
     16 C16         1.7100    1.6550   10.0050 c3        1 2R5     -0.132100
     17 C17        -0.6930    1.9150    9.4020 c3        1 2R5     -0.132100
     18 C18         0.2430   -0.3610    9.7970 c3        1 2R5     -0.132100
     19 N19         3.7490   -0.1220    0.9770 nb        1 2R5     -0.822000
     20 C20         4.3240   -0.4540   -0.2430 ca        1 2R5      0.904900
     21 N21         5.7170   -0.6130   -0.2460 nh        1 2R5     -0.698300
     22 C22         6.4650   -0.6180   -1.4520 ca        1 2R5      0.073600
     23 C23         7.4480    0.3670   -1.6730 ca        1 2R5     -0.091500
     24 C24         8.2440    0.3320   -2.8140 ca        1 2R5     -0.169500
     25 C25         8.0550   -0.6850   -3.7560 ca        1 2R5      0.136100
     26 O26         8.7770   -0.8230   -4.9230 os        1 2R5     -0.326900
     27 C27         9.7690    0.1820   -5.1660 c3        1 2R5      0.102400
     28 C28        10.3880   -0.2140   -6.5210 c3        1 2R5      0.036300
     29 N29        11.4170    0.6760   -6.9550 na        1 2R5     -0.077100
     30 C30        12.7710    0.5840   -6.6160 cc        1 2R5     -0.163300
     31 C31        13.4380    1.6870   -7.1580 cd        1 2R5     -0.190000
     32 C32        12.4580    2.4890   -7.8370 cd        1 2R5     -0.190000
     33 C33        11.2220    1.8510   -7.6880 cc        1 2R5     -0.163300
     34 C34         7.0740   -1.6740   -3.5510 ca        1 2R5     -0.169500
     35 C35         6.2900   -1.6420   -2.4080 ca        1 2R5     -0.091500
     36 N36         3.6050   -0.7010   -1.4100 nb        1 2R5     -0.724000
     37 C37         2.2760   -0.6320   -1.3110 ca        1 2R5      0.491200
     38 H1         -0.3150   -0.4670   -1.1190 hc        1 2R5      0.047700
     39 H2         -0.2590    0.7180    0.2470 hc        1 2R5      0.047700
     40 H3         -0.3100   -1.0660    0.5880 hc        1 2R5      0.047700
     41 H4          0.8580   -0.2000    2.3450 hn        1 2R5      0.436800
     42 H5          3.9130    1.8770    2.5570 ha        1 2R5      0.187000
     43 H6          5.0320    2.3550    4.7120 ha        1 2R5      0.171000
     44 H7          4.2230    1.3300    6.8270 ha        1 2R5      0.163000
     45 H8          1.1190   -0.7500    4.6380 ha        1 2R5      0.161000
     46 H9          1.2540    1.8310    7.4670 hn        1 2R5      0.441300
     47 H10         1.9340    2.6850    9.6360 hc        1 2R5      0.075367
     48 H11         2.6330    1.0260    9.9430 hc        1 2R5      0.075367
     49 H12         1.4130    1.7280   11.0810 hc        1 2R5      0.075367
     50 H13        -0.5180    2.9390    8.9930 hc        1 2R5      0.075367
     51 H14        -0.9150    2.0100   10.4940 hc        1 2R5      0.075367
     52 H15        -1.5850    1.4640    8.9040 hc        1 2R5      0.075367
     53 H16         1.1610   -1.0000    9.8170 hc        1 2R5      0.075367
     54 H17        -0.1150   -0.2410   10.8500 hc        1 2R5      0.075367
     55 H18        -0.5560   -0.8800    9.2130 hc        1 2R5      0.075367
     56 H19         6.1990   -0.2230    0.5390 hn        1 2R5      0.438800
     57 H20         7.6060    1.1760   -0.9420 ha        1 2R5      0.143000
     58 H21         9.0080    1.1090   -2.9600 ha        1 2R5      0.153000
     59 H22        10.5340    0.1640   -4.3470 h1        1 2R5      0.052200
     60 H23         9.2840    1.1900   -5.2170 h1        1 2R5      0.052200
     61 H24        10.8130   -1.2540   -6.4280 h1        1 2R5      0.075700
     62 H25         9.5680   -0.2360   -7.2940 h1        1 2R5      0.075700
     63 H26        13.1540   -0.2580   -6.0400 h4        1 2R5      0.164000
     64 H27        14.5010    1.8960   -7.0880 ha        1 2R5      0.155000
     65 H28        12.6450    3.4140   -8.3730 ha        1 2R5      0.155000
     66 H29        10.2370    2.1290   -8.0600 h4        1 2R5      0.164000
     67 H30         6.9420   -2.4670   -4.3020 ha        1 2R5      0.153000
     68 H31         5.5280   -2.4230   -2.2570 ha        1 2R5      0.143000
     69 H32         1.7190   -0.8300   -2.2490 h4        1 2R5      0.043100
     70 H142        0.0130    0.7770    7.2610 hn        1 2R5      0.441300
@<TRIPOS>BOND
     1    1    2 1   
     2    1   38 1   
     3    1   39 1   
     4    1   40 1   
     5    2    3 ar  
     6    2   37 ar  
     7    3    4 1   
     8    3   19 ar  
     9    4    5 1   
    10    4   41 1   
    11    5    6 ar  
    12    5   10 ar  
    13    6    7 ar  
    14    6   42 1   
    15    7    8 ar  
    16    7   43 1   
    17    8    9 ar  
    18    8   44 1   
    19    9   10 ar  
    20    9   11 1   
    21   10   45 1   
    22   11   12 2   
    23   11   13 2   
    24   11   14 1   
    25   14   15 1   
    26   14   46 1   
    27   14   70 1   
    28   15   16 1   
    29   15   17 1   
    30   15   18 1   
    31   16   47 1   
    32   16   48 1   
    33   16   49 1   
    34   17   50 1   
    35   17   51 1   
    36   17   52 1   
    37   18   53 1   
    38   18   54 1   
    39   18   55 1   
    40   19   20 ar  
    41   20   21 1   
    42   20   36 ar  
    43   21   22 1   
    44   21   56 1   
    45   22   23 ar  
    46   22   35 ar  
    47   23   24 ar  
    48   23   57 1   
    49   24   25 ar  
    50   24   58 1   
    51   25   26 1   
    52   25   34 ar  
    53   26   27 1   
    54   27   28 1   
    55   27   59 1   
    56   27   60 1   
    57   28   29 1   
    58   28   61 1   
    59   28   62 1   
    60   29   30 1   
    61   29   33 1   
    62   30   31 2   
    63   30   63 1   
    64   31   32 1   
    65   31   64 1   
    66   32   33 2   
    67   32   65 1   
    68   33   66 1   
    69   34   35 ar  
    70   34   67 1   
    71   35   68 1   
    72   36   37 ar  
    73   37   69 1   
@<TRIPOS>SUBSTRUCTURE
     1 2R5         1 TEMP              0 ****  ****    0 ROOT
