@<TRIPOS>MOLECULE
2R5
   72    75     1     0     0
SMALL
bcc


@<TRIPOS>ATOM
      1 C01         1.2150   -0.2960    0.8210 c3        1 2R5     -0.107800
      2 C02         2.6130   -0.7360    0.6760 ca        1 2R5     -0.194900
      3 C03         3.7160   -0.1370    1.3210 ca        1 2R5      0.493200
      4 N04         3.5110    1.0290    2.2230 n4        1 2R5     -0.618100
      5 C05         3.5450    0.6900    3.6550 ca        1 2R5     -0.068400
      6 C06         4.7900    0.4780    4.2900 ca        1 2R5     -0.008000
      7 C07         4.8150    0.1810    5.6490 ca        1 2R5     -0.108000
      8 C08         3.6260    0.0850    6.3750 ca        1 2R5      0.045000
      9 C09         2.3840    0.3080    5.7600 ca        1 2R5     -0.434500
     10 C10         2.3540    0.6160    4.3890 ca        1 2R5      0.018000
     11 S11         0.9490    0.0310    6.5900 sy        1 2R5      1.446200
     12 O12        -0.1030    0.1630    5.7010 o         1 2R5     -0.543800
     13 O13         1.1080   -1.0090    7.4760 o         1 2R5     -0.543800
     14 N14         0.8830    1.5530    7.5900 n4        1 2R5     -0.751900
     15 C15        -0.0430    1.4920    8.8320 c3        1 2R5      0.171200
     16 C16         0.6690    0.7600    9.9680 c3        1 2R5     -0.148433
     17 C17        -0.3610    2.9230    9.2710 c3        1 2R5     -0.148433
     18 C18        -1.3380    0.7710    8.4640 c3        1 2R5     -0.148433
     19 N19         5.0130   -0.5470    1.1360 nb        1 2R5     -0.680000
     20 C20         5.1860   -1.5830    0.2680 ca        1 2R5      0.761900
     21 N21         6.5890   -2.0320   -0.0220 n4        1 2R5     -0.581100
     22 C22         7.0320   -1.6130   -1.3520 ca        1 2R5     -0.174400
     23 C23         7.8490   -0.4740   -1.4920 ca        1 2R5     -0.042500
     24 C24         8.3400   -0.1310   -2.7400 ca        1 2R5     -0.175500
     25 C25         8.0120   -0.9150   -3.8680 ca        1 2R5      0.241100
     26 O26         8.4370   -0.6780   -5.1290 os        1 2R5     -0.282900
     27 C27         9.3330    0.4380   -5.3320 c3        1 2R5      0.086400
     28 C28         9.6590    0.3960   -6.8430 c3        1 2R5      0.049300
     29 N29        10.4490    1.5010   -7.2620 na        1 2R5     -0.097100
     30 C30        11.8500    1.5710   -7.2080 cc        1 2R5     -0.166800
     31 C31        12.2400    2.8550   -7.5900 cd        1 2R5     -0.168500
     32 C32        11.0430    3.6060   -7.8690 cd        1 2R5     -0.168500
     33 C33         9.9570    2.7570   -7.6480 cc        1 2R5     -0.166800
     34 C34         7.1710   -2.0500   -3.7230 ca        1 2R5     -0.175500
     35 C35         6.6830   -2.3950   -2.4790 ca        1 2R5     -0.042500
     36 N36         4.1790   -2.2590   -0.4020 nb        1 2R5     -0.601000
     37 C37         2.9360   -1.8320   -0.1910 ca        1 2R5      0.497200
     38 H1          0.9110   -0.2370    1.8970 hc        1 2R5      0.098367
     39 H2          1.0600    0.7060    0.3380 hc        1 2R5      0.098367
     40 H3          0.5120   -1.0140    0.3160 hc        1 2R5      0.098367
     41 H4          2.5930    1.4430    1.9880 hn        1 2R5      0.488800
     42 H5          5.7410    0.5450    3.7280 ha        1 2R5      0.187000
     43 H6          5.7860    0.0110    6.1560 ha        1 2R5      0.211000
     44 H7          3.6740   -0.2000    7.4470 ha        1 2R5      0.196000
     45 H8          1.3680    0.7810    3.9060 ha        1 2R5      0.185000
     46 H9          1.7970    1.8370    7.9430 hn        1 2R5      0.459800
     47 H10        -0.0210    0.7420   10.8530 hc        1 2R5      0.089811
     48 H11         1.6020    1.2910   10.2770 hc        1 2R5      0.089811
     49 H12         0.9050   -0.3010    9.7030 hc        1 2R5      0.089811
     50 H13        -0.9390    3.4740    8.4890 hc        1 2R5      0.089811
     51 H14         0.5670    3.4910    9.5240 hc        1 2R5      0.089811
     52 H15        -0.9950    2.8760   10.1950 hc        1 2R5      0.089811
     53 H16        -1.1700   -0.3230    8.2970 hc        1 2R5      0.089811
     54 H17        -2.0470    0.8680    9.3290 hc        1 2R5      0.089811
     55 H18        -1.8360    1.2220    7.5710 hc        1 2R5      0.089811
     56 H19         6.6060   -3.0660    0.0210 hn        1 2R5      0.487800
     57 H20         8.1260    0.1440   -0.6210 ha        1 2R5      0.158000
     58 H21         8.9950    0.7500   -2.8430 ha        1 2R5      0.193500
     59 H22        10.2530    0.2920   -4.7100 h1        1 2R5      0.066200
     60 H23         8.8060    1.3850   -5.0470 h1        1 2R5      0.066200
     61 H24        10.2070   -0.5640   -7.0610 h1        1 2R5      0.084200
     62 H25         8.6870    0.3900   -7.4150 h1        1 2R5      0.084200
     63 H26        12.4510    0.7020   -6.9430 h4        1 2R5      0.166000
     64 H27        13.2590    3.2220   -7.6790 ha        1 2R5      0.168000
     65 H28        11.0000    4.6380   -8.2060 ha        1 2R5      0.168000
     66 H29         8.8890    2.9320   -7.7740 h4        1 2R5      0.166000
     67 H30         6.9270   -2.6520   -4.6170 ha        1 2R5      0.193500
     68 H31         6.0370   -3.2850   -2.3820 ha        1 2R5      0.158000
     69 H32         2.1290   -2.3770   -0.7380 h4        1 2R5      0.112100
     70 H042        4.2480    1.7340    2.0410 hn        1 2R5      0.488800
     71 H142        0.5240    2.3290    7.0270 hn        1 2R5      0.459800
     72 H212        7.2310   -1.6470    0.6870 hn        1 2R5      0.487800
@<TRIPOS>BOND
     1    1    2 1   
     2    1   38 1   
     3    1   39 1   
     4    1   40 1   
     5    2    3 ar  
     6    2   37 ar  
     7    3    4 1   
     8    3   19 ar  
     9    4    5 1   
    10    4   41 1   
    11    4   70 1   
    12    5    6 ar  
    13    5   10 ar  
    14    6    7 ar  
    15    6   42 1   
    16    7    8 ar  
    17    7   43 1   
    18    8    9 ar  
    19    8   44 1   
    20    9   10 ar  
    21    9   11 1   
    22   10   45 1   
    23   11   12 2   
    24   11   13 2   
    25   11   14 1   
    26   14   15 1   
    27   14   46 1   
    28   14   71 1   
    29   15   16 1   
    30   15   17 1   
    31   15   18 1   
    32   16   47 1   
    33   16   48 1   
    34   16   49 1   
    35   17   50 1   
    36   17   51 1   
    37   17   52 1   
    38   18   53 1   
    39   18   54 1   
    40   18   55 1   
    41   19   20 ar  
    42   20   21 1   
    43   20   36 ar  
    44   21   22 1   
    45   21   56 1   
    46   21   72 1   
    47   22   23 ar  
    48   22   35 ar  
    49   23   24 ar  
    50   23   57 1   
    51   24   25 ar  
    52   24   58 1   
    53   25   26 1   
    54   25   34 ar  
    55   26   27 1   
    56   27   28 1   
    57   27   59 1   
    58   27   60 1   
    59   28   29 1   
    60   28   61 1   
    61   28   62 1   
    62   29   30 1   
    63   29   33 1   
    64   30   31 2   
    65   30   63 1   
    66   31   32 1   
    67   31   64 1   
    68   32   33 2   
    69   32   65 1   
    70   33   66 1   
    71   34   35 ar  
    72   34   67 1   
    73   35   68 1   
    74   36   37 ar  
    75   37   69 1   
@<TRIPOS>SUBSTRUCTURE
     1 2R5         1 TEMP              0 ****  ****    0 ROOT
