@<TRIPOS>MOLECULE
2R6
   58    61     1     0     0
SMALL
bcc


@<TRIPOS>ATOM
      1 O1         -0.0640   -0.2240    0.1800 o         1 2R6     -0.642500
      2 C21         1.1780   -0.1270    0.1060 c         1 2R6      0.713100
      3 N1          1.9000   -0.0610    1.2830 ns        1 2R6     -0.576900
      4 C22         3.3330   -0.0600    1.3090 c3        1 2R6      0.103000
      5 C23         3.9620   -0.7890    0.1210 c3        1 2R6     -0.061100
      6 C13         3.3040   -0.4140   -1.1610 ca        1 2R6     -0.034300
      7 C12         4.0530   -0.4180   -2.3340 ca        1 2R6     -0.154000
      8 C14         1.9350   -0.0820   -1.1780 ca        1 2R6     -0.134600
      9 C15         1.3230    0.2740   -2.3890 ca        1 2R6      0.009700
     10 C17        -0.1100    0.6760   -2.4900 c3        1 2R6     -0.045100
     11 C18        -1.0430   -0.5110   -2.7120 c3        1 2R6     -0.058700
     12 C20        -2.4780   -0.0750   -2.4970 c3        1 2R6     -0.092100
     13 C19        -0.8730   -1.1030   -4.0940 c3        1 2R6     -0.092100
     14 C16         2.0830    0.2840   -3.5670 ca        1 2R6     -0.154000
     15 C11         3.4460   -0.0610   -3.5560 ca        1 2R6      0.030800
     16 N           4.1810   -0.0680   -4.7620 na        1 2R6      0.006800
     17 C2          3.7450   -0.7040   -5.9390 cc        1 2R6     -0.172300
     18 C3          5.4090    0.5380   -5.0170 cc        1 2R6     -0.042600
     19 C8          6.2150    1.3740   -4.1010 c3        1 2R6     -0.015100
     20 C7          7.6760    1.4370   -4.5670 c3        1 2R6     -0.039000
     21 C10         8.3770    0.1220   -4.2590 c3        1 2R6     -0.092100
     22 C9          8.3720    2.5610   -3.8090 c3        1 2R6     -0.092100
     23 C6          7.7600    1.7350   -6.0640 c3        1 2R6     -0.174400
     24 C5          6.9950    0.7680   -6.9370 c         1 2R6      0.613700
     25 O           7.4080    0.4710   -8.0660 o         1 2R6     -0.550100
     26 C4          5.7600    0.2740   -6.3600 cd        1 2R6     -0.242600
     27 C1          4.7050   -0.5170   -6.9410 cd        1 2R6     -0.067300
     28 C           4.6390   -1.0210   -8.3130 c3        1 2R6     -0.039800
     29 H1          1.4080   -0.1140    2.1440 hn        1 2R6      0.327500
     30 H2          3.6830   -0.5470    2.2640 h1        1 2R6      0.045200
     31 H3          3.7010    1.0080    1.3160 h1        1 2R6      0.045200
     32 H4          5.0550   -0.5390    0.0930 hc        1 2R6      0.067200
     33 H5          3.8730   -1.9010    0.2610 hc        1 2R6      0.067200
     34 H6          5.1140   -0.7100   -2.3000 ha        1 2R6      0.149000
     35 H7         -0.2350    1.4040   -3.3370 hc        1 2R6      0.063200
     36 H8         -0.4190    1.2020   -1.5450 hc        1 2R6      0.063200
     37 H9         -0.7930   -1.2950   -1.9400 hc        1 2R6      0.070700
     38 H10        -3.1710   -0.9310   -2.6800 hc        1 2R6      0.034200
     39 H11        -2.6180    0.2790   -1.4470 hc        1 2R6      0.034200
     40 H12        -2.7470    0.7540   -3.1940 hc        1 2R6      0.034200
     41 H13         0.1870   -1.4150   -4.2580 hc        1 2R6      0.034200
     42 H14        -1.1470   -0.3570   -4.8790 hc        1 2R6      0.034200
     43 H15        -1.5290   -1.9980   -4.2130 hc        1 2R6      0.034200
     44 H16         1.5920    0.5640   -4.5140 ha        1 2R6      0.155000
     45 H17         2.7990   -1.2450   -5.9610 h4        1 2R6      0.175000
     46 H18         5.7840    2.4140   -4.0920 hc        1 2R6      0.059700
     47 H19         6.1790    0.9870   -3.0490 hc        1 2R6      0.059700
     48 H20         9.4430    0.1680   -4.5870 hc        1 2R6      0.040033
     49 H21         8.3510   -0.0840   -3.1630 hc        1 2R6      0.040033
     50 H22         7.8720   -0.7170   -4.7960 hc        1 2R6      0.040033
     51 H23         8.3140    2.3770   -2.7090 hc        1 2R6      0.040033
     52 H24         7.8920    3.5430   -4.0330 hc        1 2R6      0.040033
     53 H25         9.4470    2.6140   -4.1050 hc        1 2R6      0.040033
     54 H26         8.8370    1.7390   -6.3790 hc        1 2R6      0.071700
     55 H27         7.3420    2.7590   -6.2620 hc        1 2R6      0.071700
     56 H28         5.6360   -0.9190   -8.8140 hc        1 2R6      0.052700
     57 H29         4.3370   -2.0980   -8.3260 hc        1 2R6      0.052700
     58 H30         3.8860   -0.4400   -8.9060 hc        1 2R6      0.052700
@<TRIPOS>BOND
     1    1    2 2   
     2    2    3 1   
     3    2    8 1   
     4    3    4 1   
     5    3   29 1   
     6    4    5 1   
     7    4   30 1   
     8    4   31 1   
     9    5    6 1   
    10    5   32 1   
    11    5   33 1   
    12    6    7 ar  
    13    6    8 ar  
    14    7   15 ar  
    15    7   34 1   
    16    8    9 ar  
    17    9   10 1   
    18    9   14 ar  
    19   10   11 1   
    20   10   35 1   
    21   10   36 1   
    22   11   12 1   
    23   11   13 1   
    24   11   37 1   
    25   12   38 1   
    26   12   39 1   
    27   12   40 1   
    28   13   41 1   
    29   13   42 1   
    30   13   43 1   
    31   14   15 ar  
    32   14   44 1   
    33   15   16 1   
    34   16   17 1   
    35   16   18 1   
    36   17   27 2   
    37   17   45 1   
    38   18   19 1   
    39   18   26 2   
    40   19   20 1   
    41   19   46 1   
    42   19   47 1   
    43   20   21 1   
    44   20   22 1   
    45   20   23 1   
    46   21   48 1   
    47   21   49 1   
    48   21   50 1   
    49   22   51 1   
    50   22   52 1   
    51   22   53 1   
    52   23   24 1   
    53   23   54 1   
    54   23   55 1   
    55   24   25 2   
    56   24   26 1   
    57   26   27 1   
    58   27   28 1   
    59   28   56 1   
    60   28   57 1   
    61   28   58 1   
@<TRIPOS>SUBSTRUCTURE
     1 2R6         1 TEMP              0 ****  ****    0 ROOT
