@<TRIPOS>MOLECULE
2R6
   58    61     1     0     0
SMALL
bcc


@<TRIPOS>ATOM
      1 O1         -0.0730   -0.2000    0.1710 o         1 2R6     -0.642500
      2 C21         1.1710   -0.1130    0.1000 c         1 2R6      0.713100
      3 N1          1.8910   -0.0540    1.2790 n         1 2R6     -0.576900
      4 C22         3.3230   -0.0650    1.3070 c3        1 2R6      0.103000
      5 C23         3.9500   -0.7970    0.1190 c3        1 2R6     -0.061100
      6 C13         3.2960   -0.4150   -1.1630 ca        1 2R6     -0.034300
      7 C12         4.0480   -0.4220   -2.3360 ca        1 2R6     -0.154000
      8 C14         1.9300   -0.0720   -1.1820 ca        1 2R6     -0.134600
      9 C15         1.3230    0.2910   -2.3940 ca        1 2R6      0.009700
     10 C17        -0.1060    0.7060   -2.4970 c3        1 2R6     -0.045100
     11 C18        -1.0480   -0.4750   -2.7230 c3        1 2R6     -0.058700
     12 C20        -2.4800   -0.0270   -2.5100 c3        1 2R6     -0.092100
     13 C19        -0.8800   -1.0650   -4.1050 c3        1 2R6     -0.092100
     14 C16         2.0860    0.2970   -3.5700 ca        1 2R6     -0.154000
     15 C11         3.4460   -0.0580   -3.5570 ca        1 2R6      0.030800
     16 N           4.1830   -0.0680   -4.7620 na        1 2R6      0.006800
     17 C2          3.7440   -0.6980   -5.9420 cc        1 2R6     -0.172300
     18 C3          5.4160    0.5290   -5.0130 cc        1 2R6     -0.042600
     19 C8          6.2270    1.3570   -4.0950 c3        1 2R6     -0.015100
     20 C7          7.6890    1.4100   -4.5580 c3        1 2R6     -0.039000
     21 C10         8.3790    0.0880   -4.2510 c3        1 2R6     -0.092100
     22 C9          8.3930    2.5260   -3.7950 c3        1 2R6     -0.092100
     23 C6          7.7790    1.7090   -6.0530 c3        1 2R6     -0.174400
     24 C5          7.0080    0.7510   -6.9300 c         1 2R6      0.613700
     25 O           7.4210    0.4530   -8.0590 o         1 2R6     -0.550100
     26 C4          5.7680    0.2650   -6.3570 cd        1 2R6     -0.242600
     27 C1          4.7080   -0.5160   -6.9410 cd        1 2R6     -0.067300
     28 C           4.6410   -1.0170   -8.3150 c3        1 2R6     -0.039800
     29 H1          1.3970   -0.1060    2.1380 hn        1 2R6      0.327500
     30 H2          3.7010    1.0000    1.3170 h1        1 2R6      0.045200
     31 H3          3.6680   -0.5570    2.2610 h1        1 2R6      0.045200
     32 H4          5.0450   -0.5560    0.0930 hc        1 2R6      0.067200
     33 H5          3.8520   -1.9080    0.2570 hc        1 2R6      0.067200
     34 H6          5.1070   -0.7220   -2.3000 ha        1 2R6      0.149000
     35 H7         -0.2240    1.4360   -3.3430 hc        1 2R6      0.063200
     36 H8         -0.4130    1.2320   -1.5520 hc        1 2R6      0.063200
     37 H9         -0.8060   -1.2610   -1.9520 hc        1 2R6      0.070700
     38 H10        -2.6200    0.3260   -1.4600 hc        1 2R6      0.034200
     39 H11        -3.1790   -0.8780   -2.6950 hc        1 2R6      0.034200
     40 H12        -2.7410    0.8050   -3.2070 hc        1 2R6      0.034200
     41 H13         0.1780   -1.3850   -4.2680 hc        1 2R6      0.034200
     42 H14        -1.5430   -1.9550   -4.2270 hc        1 2R6      0.034200
     43 H15        -1.1470   -0.3170   -4.8900 hc        1 2R6      0.034200
     44 H16         1.5980    0.5830   -4.5180 ha        1 2R6      0.155000
     45 H17         2.7950   -1.2320   -5.9670 h4        1 2R6      0.175000
     46 H18         6.1860    0.9680   -3.0430 hc        1 2R6      0.059700
     47 H19         5.8040    2.4000   -4.0850 hc        1 2R6      0.059700
     48 H20         9.4470    0.1260   -4.5770 hc        1 2R6      0.040033
     49 H21         7.8690   -0.7460   -4.7900 hc        1 2R6      0.040033
     50 H22         8.3500   -0.1200   -3.1550 hc        1 2R6      0.040033
     51 H23         8.3310    2.3400   -2.6960 hc        1 2R6      0.040033
     52 H24         7.9210    3.5130   -4.0180 hc        1 2R6      0.040033
     53 H25         9.4690    2.5710   -4.0890 hc        1 2R6      0.040033
     54 H26         7.3700    2.7370   -6.2500 hc        1 2R6      0.071700
     55 H27         8.8570    1.7060   -6.3660 hc        1 2R6      0.071700
     56 H28         5.6380   -0.9190   -8.8140 hc        1 2R6      0.052700
     57 H29         4.3330   -2.0930   -8.3300 hc        1 2R6      0.052700
     58 H30         3.8920   -0.4320   -8.9060 hc        1 2R6      0.052700
@<TRIPOS>BOND
     1    1    2 2   
     2    2    3 1   
     3    2    8 1   
     4    3    4 1   
     5    3   29 1   
     6    4    5 1   
     7    4   30 1   
     8    4   31 1   
     9    5    6 1   
    10    5   32 1   
    11    5   33 1   
    12    6    7 ar  
    13    6    8 ar  
    14    7   15 ar  
    15    7   34 1   
    16    8    9 ar  
    17    9   10 1   
    18    9   14 ar  
    19   10   11 1   
    20   10   35 1   
    21   10   36 1   
    22   11   12 1   
    23   11   13 1   
    24   11   37 1   
    25   12   38 1   
    26   12   39 1   
    27   12   40 1   
    28   13   41 1   
    29   13   42 1   
    30   13   43 1   
    31   14   15 ar  
    32   14   44 1   
    33   15   16 1   
    34   16   17 1   
    35   16   18 1   
    36   17   27 2   
    37   17   45 1   
    38   18   19 1   
    39   18   26 2   
    40   19   20 1   
    41   19   46 1   
    42   19   47 1   
    43   20   21 1   
    44   20   22 1   
    45   20   23 1   
    46   21   48 1   
    47   21   49 1   
    48   21   50 1   
    49   22   51 1   
    50   22   52 1   
    51   22   53 1   
    52   23   24 1   
    53   23   54 1   
    54   23   55 1   
    55   24   25 2   
    56   24   26 1   
    57   26   27 1   
    58   27   28 1   
    59   28   56 1   
    60   28   57 1   
    61   28   58 1   
@<TRIPOS>SUBSTRUCTURE
     1 2R6         1 TEMP              0 ****  ****    0 ROOT
