@<TRIPOS>MOLECULE
2R6
   58    61     1     0     0
SMALL
bcc


@<TRIPOS>ATOM
      1 O1         -0.0620   -0.2250    0.1810 o         1 2R6     -0.642500
      2 C21         1.1790   -0.1240    0.1070 c         1 2R6      0.713100
      3 N1          1.9020   -0.0510    1.2840 n         1 2R6     -0.576900
      4 C22         3.3340   -0.0450    1.3100 c3        1 2R6      0.103000
      5 C23         3.9660   -0.7760    0.1240 c3        1 2R6     -0.061100
      6 C13         3.3060   -0.4080   -1.1590 ca        1 2R6     -0.034300
      7 C12         4.0550   -0.4130   -2.3320 ca        1 2R6     -0.154000
      8 C14         1.9360   -0.0810   -1.1770 ca        1 2R6     -0.134600
      9 C15         1.3220    0.2690   -2.3890 ca        1 2R6      0.009700
     10 C17        -0.1120    0.6660   -2.4920 c3        1 2R6     -0.045100
     11 C18        -1.0400   -0.5260   -2.7090 c3        1 2R6     -0.058700
     12 C20        -2.4770   -0.0940   -2.4960 c3        1 2R6     -0.092100
     13 C19        -0.8680   -1.1220   -4.0890 c3        1 2R6     -0.092100
     14 C16         2.0830    0.2770   -3.5670 ca        1 2R6     -0.154000
     15 C11         3.4470   -0.0620   -3.5550 ca        1 2R6      0.030800
     16 N           4.1820   -0.0710   -4.7610 na        1 2R6      0.006800
     17 C2          3.7480   -0.7110   -5.9360 cc        1 2R6     -0.172300
     18 C3          5.4080    0.5390   -5.0180 cc        1 2R6     -0.042600
     19 C8          6.2110    1.3810   -4.1050 c3        1 2R6     -0.015100
     20 C7          7.6710    1.4480   -4.5720 c3        1 2R6     -0.039000
     21 C10         8.3770    0.1360   -4.2600 c3        1 2R6     -0.092100
     22 C9          8.3640    2.5760   -3.8170 c3        1 2R6     -0.092100
     23 C6          7.7540    1.7410   -6.0690 c3        1 2R6     -0.174400
     24 C5          6.9920    0.7700   -6.9400 c         1 2R6      0.613700
     25 O           7.4060    0.4710   -8.0680 o         1 2R6     -0.550100
     26 C4          5.7600    0.2730   -6.3610 cd        1 2R6     -0.242600
     27 C1          4.7070   -0.5240   -6.9390 cd        1 2R6     -0.067300
     28 C           4.6420   -1.0330   -8.3100 c3        1 2R6     -0.039800
     29 H1          1.4090   -0.1030    2.1450 hn        1 2R6      0.327500
     30 H2          3.6860   -0.5280    2.2660 h1        1 2R6      0.045200
     31 H3          3.6990    1.0240    1.3130 h1        1 2R6      0.045200
     32 H4          5.0580   -0.5220    0.0950 hc        1 2R6      0.067200
     33 H5          3.8810   -1.8880    0.2680 hc        1 2R6      0.067200
     34 H6          5.1180   -0.7010   -2.2980 ha        1 2R6      0.149000
     35 H7         -0.4230    1.1940   -1.5480 hc        1 2R6      0.063200
     36 H8         -0.2400    1.3910   -3.3410 hc        1 2R6      0.063200
     37 H9         -0.7880   -1.3050   -1.9340 hc        1 2R6      0.070700
     38 H10        -3.1670   -0.9530   -2.6760 hc        1 2R6      0.034200
     39 H11        -2.7490    0.7320   -3.1970 hc        1 2R6      0.034200
     40 H12        -2.6190    0.2640   -1.4480 hc        1 2R6      0.034200
     41 H13        -1.1440   -0.3810   -4.8770 hc        1 2R6      0.034200
     42 H14        -1.5210   -2.0200   -4.2040 hc        1 2R6      0.034200
     43 H15         0.1930   -1.4310   -4.2510 hc        1 2R6      0.034200
     44 H16         1.5900    0.5520   -4.5150 ha        1 2R6      0.155000
     45 H17         2.8040   -1.2560   -5.9570 h4        1 2R6      0.175000
     46 H18         5.7760    2.4190   -4.0990 hc        1 2R6      0.059700
     47 H19         6.1770    0.9970   -3.0520 hc        1 2R6      0.059700
     48 H20         7.8750   -0.7070   -4.7940 hc        1 2R6      0.040033
     49 H21         9.4430    0.1840   -4.5880 hc        1 2R6      0.040033
     50 H22         8.3520   -0.0670   -3.1630 hc        1 2R6      0.040033
     51 H23         9.4380    2.6320   -4.1130 hc        1 2R6      0.040033
     52 H24         8.3060    2.3950   -2.7170 hc        1 2R6      0.040033
     53 H25         7.8800    3.5560   -4.0430 hc        1 2R6      0.040033
     54 H26         7.3330    2.7630   -6.2700 hc        1 2R6      0.071700
     55 H27         8.8310    1.7490   -6.3840 hc        1 2R6      0.071700
     56 H28         3.8820   -0.4620   -8.9020 hc        1 2R6      0.052700
     57 H29         4.3520   -2.1130   -8.3180 hc        1 2R6      0.052700
     58 H30         5.6370   -0.9220   -8.8130 hc        1 2R6      0.052700
@<TRIPOS>BOND
     1    1    2 2   
     2    2    3 1   
     3    2    8 1   
     4    3    4 1   
     5    3   29 1   
     6    4    5 1   
     7    4   30 1   
     8    4   31 1   
     9    5    6 1   
    10    5   32 1   
    11    5   33 1   
    12    6    7 ar  
    13    6    8 ar  
    14    7   15 ar  
    15    7   34 1   
    16    8    9 ar  
    17    9   10 1   
    18    9   14 ar  
    19   10   11 1   
    20   10   35 1   
    21   10   36 1   
    22   11   12 1   
    23   11   13 1   
    24   11   37 1   
    25   12   38 1   
    26   12   39 1   
    27   12   40 1   
    28   13   41 1   
    29   13   42 1   
    30   13   43 1   
    31   14   15 ar  
    32   14   44 1   
    33   15   16 1   
    34   16   17 1   
    35   16   18 1   
    36   17   27 2   
    37   17   45 1   
    38   18   19 1   
    39   18   26 2   
    40   19   20 1   
    41   19   46 1   
    42   19   47 1   
    43   20   21 1   
    44   20   22 1   
    45   20   23 1   
    46   21   48 1   
    47   21   49 1   
    48   21   50 1   
    49   22   51 1   
    50   22   52 1   
    51   22   53 1   
    52   23   24 1   
    53   23   54 1   
    54   23   55 1   
    55   24   25 2   
    56   24   26 1   
    57   26   27 1   
    58   27   28 1   
    59   28   56 1   
    60   28   57 1   
    61   28   58 1   
@<TRIPOS>SUBSTRUCTURE
     1 2R6         1 TEMP              0 ****  ****    0 ROOT
