@<TRIPOS>MOLECULE
2R7
   51    52     1     0     0
SMALL
bcc


@<TRIPOS>ATOM
      1 CAP        -3.6390   -2.1330    2.5800 cx        1 2R7     -0.078900
      2 CAQ        -2.9000   -0.9110    2.1500 cx        1 2R7     -0.078900
      3 CBB        -2.1490   -2.0150    2.8940 cx        1 2R7     -0.136600
      4 CAV        -1.7190   -1.7240    4.3100 c         1 2R7      0.654100
      5 OAF        -0.6120   -2.0410    4.7680 o         1 2R7     -0.550000
      6 OAB        -2.5140   -1.0680    5.1840 oh        1 2R7     -0.527100
      7 NAT        -1.2370   -2.8800    2.1830 n         1 2R7     -0.431900
      8 CAW         0.0790   -2.3940    2.0940 c         1 2R7      0.654100
      9 OAC         0.4700   -1.4240    1.4500 o         1 2R7     -0.444100
     10 N           1.1870   -3.1560    2.8290 n4        1 2R7     -0.666800
     11 CA          1.6660   -4.3570    2.0730 c3        1 2R7      0.003500
     12 C           0.5550   -5.4350    2.0120 c         1 2R7      0.897600
     13 OXT        -0.2310   -5.5590    3.0010 o         1 2R7     -0.814300
     14 O           0.5040   -6.1750    0.9960 o         1 2R7     -0.814300
     15 CB          2.9540   -4.9220    2.6960 c3        1 2R7     -0.083400
     16 CAM         3.0480   -6.4370    2.6490 c3        1 2R7     -0.093400
     17 CAL         2.3690   -7.0910    3.8400 c3        1 2R7     -0.113400
     18 CAN         1.7520   -8.4470    3.5230 c3        1 2R7      0.120800
     19 NAR         0.4820   -8.3400    2.7500 n4        1 2R7     -0.690800
     20 CAX        -0.3020   -9.6170    2.6710 c         1 2R7      0.571700
     21 OAD         0.0780  -10.5430    3.3820 o         1 2R7     -0.455100
     22 CAZ        -1.4480   -9.6290    1.7550 ca        1 2R7     -0.191600
     23 CAJ        -2.2030  -10.8150    1.7130 ca        1 2R7     -0.068500
     24 CAH        -3.3040  -10.9110    0.8650 ca        1 2R7     -0.107500
     25 CAY        -3.6610   -9.8330    0.0530 ca        1 2R7      0.076900
     26 IAG        -5.2550   -9.9740   -1.1770 i         1 2R7     -0.078900
     27 CAI        -2.9090   -8.6560    0.0940 ca        1 2R7     -0.107500
     28 CAK        -1.8070   -8.5450    0.9400 ca        1 2R7     -0.068500
     29 H1         -4.3530   -2.0920    3.4250 hc        1 2R7      0.106700
     30 H2         -3.9590   -2.8650    1.8130 hc        1 2R7      0.106700
     31 H3         -2.6850   -0.7600    1.0740 hc        1 2R7      0.106700
     32 H4         -3.0580    0.0490    2.6780 hc        1 2R7      0.106700
     33 H6         -3.3540   -0.8170    4.7690 ho        1 2R7      0.445000
     34 H7          0.8210   -3.4630    3.7480 hn        1 2R7      0.470300
     35 H8          1.8830   -4.0230    1.0140 hx        1 2R7      0.123700
     36 H10         3.0640   -4.5940    3.7660 hc        1 2R7      0.066200
     37 H11         3.8240   -4.4930    2.1290 hc        1 2R7      0.066200
     38 H12         4.1360   -6.7180    2.6540 hc        1 2R7      0.074200
     39 H13         2.6270   -6.8110    1.6780 hc        1 2R7      0.074200
     40 H14         3.1270   -7.2630    4.6520 hc        1 2R7      0.083700
     41 H15         1.5830   -6.4060    4.2650 hc        1 2R7      0.083700
     42 H16         2.4670   -9.0800    2.9260 hx        1 2R7      0.104700
     43 H17         1.5240   -8.9880    4.4880 hx        1 2R7      0.104700
     44 H18        -0.1200   -7.5990    3.1670 hn        1 2R7      0.494300
     45 H19        -1.9200  -11.6690    2.3530 ha        1 2R7      0.175000
     46 H20        -3.8860  -11.8490    0.8440 ha        1 2R7      0.169500
     47 H21        -3.1770   -7.7990   -0.5470 ha        1 2R7      0.169500
     48 H22        -1.2440   -7.5920    0.9340 ha        1 2R7      0.175000
     49 HAT2       -1.3290   -3.8490    2.4690 hn        1 2R7      0.354500
     50 H23         1.9670   -2.5080    2.9780 hn        1 2R7      0.470300
     51 HAR2        0.6940   -8.0150    1.7860 hn        1 2R7      0.494300
@<TRIPOS>BOND
     1    1    2 1   
     2    1    3 1   
     3    1   29 1   
     4    1   30 1   
     5    2    3 1   
     6    2   31 1   
     7    2   32 1   
     8    3    4 1   
     9    3    7 1   
    10    4    5 2   
    11    4    6 1   
    12    6   33 1   
    13    7    8 1   
    14    7   49 1   
    15    8    9 2   
    16    8   10 1   
    17   10   11 1   
    18   10   34 1   
    19   10   50 1   
    20   11   12 1   
    21   11   15 1   
    22   11   35 1   
    23   12   13 1   
    24   12   14 1   
    25   15   16 1   
    26   15   36 1   
    27   15   37 1   
    28   16   17 1   
    29   16   38 1   
    30   16   39 1   
    31   17   18 1   
    32   17   40 1   
    33   17   41 1   
    34   18   19 1   
    35   18   42 1   
    36   18   43 1   
    37   19   20 1   
    38   19   44 1   
    39   19   51 1   
    40   20   21 2   
    41   20   22 1   
    42   22   23 ar  
    43   22   28 ar  
    44   23   24 ar  
    45   23   45 1   
    46   24   25 ar  
    47   24   46 1   
    48   25   26 1   
    49   25   27 ar  
    50   27   28 ar  
    51   27   47 1   
    52   28   48 1   
@<TRIPOS>SUBSTRUCTURE
     1 2R7         1 TEMP              0 ****  ****    0 ROOT
