@<TRIPOS>MOLECULE
2R7
   51    52     1     0     0
SMALL
bcc


@<TRIPOS>ATOM
      1 CAP        -1.3140    0.8900    0.6190 cx        1 2R7     -0.083900
      2 CAQ        -0.0690    0.3730   -0.0210 cx        1 2R7     -0.083900
      3 CBB        -0.1180    0.5150    1.4960 cx        1 2R7     -0.103600
      4 CAV         0.6720    1.6680    2.0680 c         1 2R7      0.640100
      5 OAF         1.6250    2.2170    1.5220 o         1 2R7     -0.454000
      6 OAB         0.3440    2.1820    3.2850 oh        1 2R7     -0.559100
      7 NAT        -0.1960   -0.6200    2.3630 n         1 2R7     -0.488900
      8 CAW         0.6310   -1.6950    2.2070 c         1 2R7      0.659100
      9 OAC         1.3670   -1.9880    1.2520 o         1 2R7     -0.539100
     10 N           0.6520   -2.7230    3.3350 n4        1 2R7     -0.641800
     11 CA         -0.6400   -3.4710    3.4310 c3        1 2R7     -0.074500
     12 C          -1.6730   -2.6690    4.3750 c         1 2R7      0.939600
     13 OXT        -1.2400   -1.5790    4.8320 o         1 2R7     -0.754800
     14 O          -2.7690   -3.2270    4.5230 o         1 2R7     -0.754800
     15 CB         -0.4770   -4.8730    3.9920 c3        1 2R7     -0.099400
     16 CAM        -0.0360   -5.8830    2.9530 c3        1 2R7     -0.085400
     17 CAL        -0.2720   -7.2900    3.4730 c3        1 2R7     -0.108400
     18 CAN         0.0710   -8.3000    2.3860 c3        1 2R7      0.103800
     19 NAR        -0.2520   -9.7000    2.7910 n4        1 2R7     -0.678800
     20 CAX         0.1180  -10.7310    1.7320 c         1 2R7      0.573700
     21 OAD         0.9200  -10.3590    0.8880 o         1 2R7     -0.417100
     22 CAZ        -0.5450  -12.0290    1.8440 ca        1 2R7     -0.200600
     23 CAJ        -0.5520  -12.8360    0.6930 ca        1 2R7     -0.068500
     24 CAH        -1.1590  -14.0910    0.7270 ca        1 2R7     -0.094500
     25 CAY        -1.7540  -14.5540    1.9010 ca        1 2R7      0.082900
     26 IAG        -2.6330  -16.3690    1.9500 i         1 2R7     -0.046900
     27 CAI        -1.7350  -13.7550    3.0510 ca        1 2R7     -0.094500
     28 CAK        -1.1360  -12.5000    3.0280 ca        1 2R7     -0.068500
     29 H1         -1.5650    1.9650    0.5380 hc        1 2R7      0.103950
     30 H2         -2.2170    0.2540    0.6460 hc        1 2R7      0.103950
     31 H3         -0.0570   -0.6430   -0.4580 hc        1 2R7      0.103950
     32 H4          0.6020    1.0690   -0.5630 hc        1 2R7      0.103950
     33 H6         -0.7990   -0.5510    3.1740 hn        1 2R7      0.396500
     34 H7          0.7740   -2.2330    4.2400 hn        1 2R7      0.459800
     35 H8         -1.0980   -3.5120    2.4050 hx        1 2R7      0.095700
     36 H10        -1.4970   -5.1580    4.3880 hc        1 2R7      0.090200
     37 H11         0.2250   -4.8850    4.8660 hc        1 2R7      0.090200
     38 H12         1.0490   -5.7470    2.7060 hc        1 2R7      0.053200
     39 H13        -0.6200   -5.7310    2.0060 hc        1 2R7      0.053200
     40 H14         0.3600   -7.4630    4.3830 hc        1 2R7      0.071200
     41 H15        -1.3490   -7.3900    3.7780 hc        1 2R7      0.071200
     42 H16        -0.5090   -8.0770    1.4440 hx        1 2R7      0.115200
     43 H17         1.1710   -8.2540    2.1380 hx        1 2R7      0.115200
     44 H18         0.2560   -9.9280    3.6540 hn        1 2R7      0.457800
     45 H19        -0.0740  -12.4770   -0.2350 ha        1 2R7      0.151500
     46 H20        -1.1580  -14.7110   -0.1870 ha        1 2R7      0.179000
     47 H21        -2.1930  -14.1170    3.9880 ha        1 2R7      0.179000
     48 H22        -1.1230  -11.9140    3.9600 ha        1 2R7      0.151500
     49 HAT2       -0.4640    1.7750    3.6290 ho        1 2R7      0.439000
     50 H23         1.4370   -3.3540    3.1630 hn        1 2R7      0.459800
     51 HAR2       -1.2570   -9.7760    2.9850 hn        1 2R7      0.457800
@<TRIPOS>BOND
     1    1    2 1   
     2    1    3 1   
     3    1   29 1   
     4    1   30 1   
     5    2    3 1   
     6    2   31 1   
     7    2   32 1   
     8    3    4 1   
     9    3    7 1   
    10    4    5 2   
    11    4    6 1   
    12    6   49 1   
    13    7    8 1   
    14    7   33 1   
    15    8    9 2   
    16    8   10 1   
    17   10   11 1   
    18   10   34 1   
    19   10   50 1   
    20   11   12 1   
    21   11   15 1   
    22   11   35 1   
    23   12   13 1   
    24   12   14 1   
    25   15   16 1   
    26   15   36 1   
    27   15   37 1   
    28   16   17 1   
    29   16   38 1   
    30   16   39 1   
    31   17   18 1   
    32   17   40 1   
    33   17   41 1   
    34   18   19 1   
    35   18   42 1   
    36   18   43 1   
    37   19   20 1   
    38   19   44 1   
    39   19   51 1   
    40   20   21 2   
    41   20   22 1   
    42   22   23 ar  
    43   22   28 ar  
    44   23   24 ar  
    45   23   45 1   
    46   24   25 ar  
    47   24   46 1   
    48   25   26 1   
    49   25   27 ar  
    50   27   28 ar  
    51   27   47 1   
    52   28   48 1   
@<TRIPOS>SUBSTRUCTURE
     1 2R7         1 TEMP              0 ****  ****    0 ROOT
