@<TRIPOS>MOLECULE
2R7
   51    52     1     0     0
SMALL
bcc


@<TRIPOS>ATOM
      1 CAP        -3.5910   -2.0920    2.6320 cx        1 2R7     -0.078900
      2 CAQ        -2.8540   -0.8870    2.1540 cx        1 2R7     -0.078900
      3 CBB        -2.0890   -1.9870    2.8890 cx        1 2R7     -0.136600
      4 CAV        -1.6040   -1.6760    4.2830 c         1 2R7      0.654100
      5 OAF        -0.4850   -1.9980    4.7050 o         1 2R7     -0.550000
      6 OAB        -2.3580   -0.9960    5.1740 oh        1 2R7     -0.527100
      7 NAT        -1.2140   -2.8760    2.1610 ns        1 2R7     -0.431900
      8 CAW         0.1030   -2.4070    2.0150 c         1 2R7      0.654100
      9 OAC         0.4810   -1.4540    1.3400 o         1 2R7     -0.444100
     10 N           1.2280   -3.1700    2.7230 ny        1 2R7     -0.666800
     11 CA          1.6650   -4.3900    1.9710 c3        1 2R7      0.003500
     12 C           0.5400   -5.4550    1.9700 c         1 2R7      0.897600
     13 OXT        -0.2110   -5.5520    2.9890 o         1 2R7     -0.814300
     14 O           0.4430   -6.2120    0.9700 o         1 2R7     -0.814300
     15 CB          2.9690   -4.9600    2.5570 c3        1 2R7     -0.083400
     16 CAM         3.0430   -6.4760    2.5340 c3        1 2R7     -0.093400
     17 CAL         2.4000   -7.1000    3.7600 c3        1 2R7     -0.113400
     18 CAN         1.7560   -8.4550    3.4910 c3        1 2R7      0.120800
     19 NAR         0.4610   -8.3450    2.7630 ny        1 2R7     -0.690800
     20 CAX        -0.3410   -9.6130    2.7350 c         1 2R7      0.571700
     21 OAD         0.0540  -10.5310    3.4480 o         1 2R7     -0.455100
     22 CAZ        -1.5200   -9.6280    1.8610 ca        1 2R7     -0.191600
     23 CAJ        -2.2900  -10.8050    1.8690 ca        1 2R7     -0.068500
     24 CAH        -3.4220  -10.9020    1.0640 ca        1 2R7     -0.107500
     25 CAY        -3.7960   -9.8340    0.2460 ca        1 2R7      0.076900
     26 IAG        -5.4360   -9.9760   -0.9220 i         1 2R7     -0.078900
     27 CAI        -3.0300   -8.6660    0.2380 ca        1 2R7     -0.107500
     28 CAK        -1.8960   -8.5540    1.0410 ca        1 2R7     -0.068500
     29 H1         -3.9480   -2.8340    1.8900 hc        1 2R7      0.106700
     30 H2         -4.2730   -2.0280    3.5010 hc        1 2R7      0.106700
     31 H3         -2.9810    0.0840    2.6690 hc        1 2R7      0.106700
     32 H4         -2.6780   -0.7570    1.0680 hc        1 2R7      0.106700
     33 H6         -3.2110   -0.7420    4.7860 ho        1 2R7      0.445000
     34 H7          2.0200   -2.5280    2.8310 hn        1 2R7      0.470300
     35 H8          1.8470   -4.0770    0.8990 hx        1 2R7      0.123700
     36 H10         3.8220   -4.5510    1.9510 hc        1 2R7      0.066200
     37 H11         3.1210   -4.6140    3.6160 hc        1 2R7      0.066200
     38 H12         4.1270   -6.7700    2.5040 hc        1 2R7      0.074200
     39 H13         2.5820   -6.8620    1.5850 hc        1 2R7      0.074200
     40 H14         3.1860   -7.2680    4.5460 hc        1 2R7      0.083700
     41 H15         1.6390   -6.3990    4.2010 hc        1 2R7      0.083700
     42 H16         2.4420   -9.1070    2.8790 hx        1 2R7      0.104700
     43 H17         1.5580   -8.9760    4.4730 hx        1 2R7      0.104700
     44 H18        -0.1170   -7.5900    3.1880 hn        1 2R7      0.494300
     45 H19        -1.9940  -11.6500    2.5130 ha        1 2R7      0.175000
     46 H20        -4.0160  -11.8320    1.0810 ha        1 2R7      0.169500
     47 H21        -3.3110   -7.8170   -0.4080 ha        1 2R7      0.169500
     48 H22        -1.3220   -7.6080    0.9970 ha        1 2R7      0.175000
     49 HAT2       -1.3070   -3.8370    2.4670 hn        1 2R7      0.354500
     50 H23         0.8930   -3.4570    3.6590 hn        1 2R7      0.470300
     51 HAR2        0.6410   -8.0400    1.7850 hn        1 2R7      0.494300
@<TRIPOS>BOND
     1    1    2 1   
     2    1    3 1   
     3    1   29 1   
     4    1   30 1   
     5    2    3 1   
     6    2   31 1   
     7    2   32 1   
     8    3    4 1   
     9    3    7 1   
    10    4    5 2   
    11    4    6 1   
    12    6   33 1   
    13    7    8 1   
    14    7   49 1   
    15    8    9 2   
    16    8   10 1   
    17   10   11 1   
    18   10   34 1   
    19   10   50 1   
    20   11   12 1   
    21   11   15 1   
    22   11   35 1   
    23   12   13 1   
    24   12   14 1   
    25   15   16 1   
    26   15   36 1   
    27   15   37 1   
    28   16   17 1   
    29   16   38 1   
    30   16   39 1   
    31   17   18 1   
    32   17   40 1   
    33   17   41 1   
    34   18   19 1   
    35   18   42 1   
    36   18   43 1   
    37   19   20 1   
    38   19   44 1   
    39   19   51 1   
    40   20   21 2   
    41   20   22 1   
    42   22   23 ar  
    43   22   28 ar  
    44   23   24 ar  
    45   23   45 1   
    46   24   25 ar  
    47   24   46 1   
    48   25   26 1   
    49   25   27 ar  
    50   27   28 ar  
    51   27   47 1   
    52   28   48 1   
@<TRIPOS>SUBSTRUCTURE
     1 2R7         1 TEMP              0 ****  ****    0 ROOT
