@<TRIPOS>MOLECULE
2RA
   14    13     1     0     0
SMALL
bcc


@<TRIPOS>ATOM
      1 C          -1.0680    0.0090    0.1530 c         1 2RA      0.891600
      2 N           0.9200   -1.4330   -0.5120 n3        1 2RA     -0.896800
      3 O          -1.6470   -1.0670    0.4790 o         1 2RA     -0.843300
      4 CA          0.3960   -0.0800   -0.3850 c3        1 2RA     -0.020500
      5 CB          1.2810    0.8140    0.5090 c3        1 2RA      0.153800
      6 NG          2.6660    0.9450    0.1180 n3        1 2RA     -0.907800
      7 OXT        -1.5950    1.1530    0.2140 o         1 2RA     -0.843300
      8 H           0.9950   -1.8270    0.4100 hn        1 2RA      0.331300
      9 H2          0.2230   -1.9800   -0.9900 hn        1 2RA      0.331300
     10 HA          0.3820    0.3600   -1.4250 h1        1 2RA      0.037700
     11 HB1         0.8080    1.8370    0.5120 h1        1 2RA      0.056200
     12 HB2         1.2540    0.4210    1.5640 h1        1 2RA      0.056200
     13 HG1         3.1180    0.0500    0.1530 hn        1 2RA      0.327300
     14 HG2         2.7180    1.2660   -0.8310 hn        1 2RA      0.327300
@<TRIPOS>BOND
     1    1    3 1   
     2    1    4 1   
     3    1    7 1   
     4    2    4 1   
     5    2    8 1   
     6    2    9 1   
     7    4    5 1   
     8    4   10 1   
     9    5    6 1   
    10    5   11 1   
    11    5   12 1   
    12    6   13 1   
    13    6   14 1   
@<TRIPOS>SUBSTRUCTURE
     1 2RA         1 TEMP              0 ****  ****    0 ROOT
