@<TRIPOS>MOLECULE
2RA
   14    12     1     0     0
SMALL
bcc


@<TRIPOS>ATOM
      1 C          -1.4990   -0.0470   -0.5850 c1        1 2RA      0.778000
      2 N           0.4860   -1.2080   -1.2560 nh        1 2RA     -0.483100
      3 O          -2.1290    0.9780   -0.9580 o         1 2RA     -0.811500
      4 CA          0.0120   -0.0470   -0.5850 c2        1 2RA      0.091200
      5 CB          0.5160   -0.0470    0.8400 c3        1 2RA      0.078500
      6 NG          0.3690    1.2580    1.3960 n3        1 2RA     -0.907800
      7 OXT        -2.1290   -1.0710   -0.2120 o         1 2RA     -0.811500
      8 H           0.0030   -1.3380   -2.0180 hn        1 2RA      0.176200
      9 H2          1.3670   -1.0990   -1.4680 hn        1 2RA      0.176200
     10 HA          0.3380    0.7500   -1.0450 h4        1 2RA     -0.052200
     11 HB1         0.0000   -0.6860    1.3680 h1        1 2RA      0.056200
     12 HB2         1.4580   -0.3010    0.8520 h1        1 2RA      0.056200
     13 HG1         0.0240    1.1920    2.2380 hn        1 2RA      0.327300
     14 HG2         1.1830    1.6670    1.4320 hn        1 2RA      0.327300
@<TRIPOS>BOND
     1    1    3 2   
     2    1    7 2   
     3    2    4 2   
     4    2    8 1   
     5    2    9 1   
     6    4    5 1   
     7    4   10 1   
     8    5    6 1   
     9    5   11 1   
    10    5   12 1   
    11    6   13 1   
    12    6   14 1   
@<TRIPOS>SUBSTRUCTURE
     1 2RA         1 TEMP              0 ****  ****    0 ROOT
