@<TRIPOS>MOLECULE
2RB
   36    37     1     0     0
SMALL
bcc


@<TRIPOS>ATOM
      1 CAA         1.4720   -0.5100   -0.6690 c3        1 2RB      0.102700
      2 OAO         2.0300    0.6070    0.0290 os        1 2RB     -0.293900
      3 CAR         2.0710    0.5400    1.3890 ca        1 2RB      0.218100
      4 CAI         2.6220    1.6750    2.0290 ca        1 2RB     -0.190000
      5 CAK         2.7090    1.7030    3.4080 ca        1 2RB     -0.023000
      6 CAH         1.6090   -0.5510    2.1520 ca        1 2RB     -0.190000
      7 CAJ         1.7080   -0.5130    3.5340 ca        1 2RB     -0.023000
      8 CAV         2.2640    0.6040    4.1790 ca        1 2RB     -0.261600
      9 CAP         2.3900    0.7290    5.6210 c         1 2RB      0.572700
     10 OAB         2.4900    1.7500    6.2910 o         1 2RB     -0.458100
     11 NAN         2.4170   -0.5940    6.4100 ny        1 2RB     -0.368900
     12 NAM         3.2740   -0.7420    7.5030 n2        1 2RB     -0.547400
     13 CAG         3.3000    0.1160    8.4940 ce        1 2RB      0.579800
     14 CAS         4.1680   -0.0220    9.6490 ca        1 2RB     -0.287900
     15 CAL         4.4200    1.1580   10.3820 ca        1 2RB      0.014000
     16 CAQ         5.2510    1.1790   11.4860 ca        1 2RB     -0.108900
     17 BrAE        5.5210    2.8040   12.3700 br        1 2RB     -0.004100
     18 CAT         5.8660   -0.0350   11.9050 ca        1 2RB      0.288100
     19 OAC         6.6790    0.0450   12.9880 oh        1 2RB     -0.442100
     20 CAW         5.6180   -1.2380   11.2140 ca        1 2RB     -0.247900
     21 BrAF        6.4150   -2.8400   11.7830 br        1 2RB     -0.033100
     22 CAU         4.7650   -1.2280   10.0880 ca        1 2RB      0.287100
     23 OAD         4.4530   -2.3590    9.4000 oh        1 2RB     -0.468100
     24 HAA         2.0720   -1.4310   -0.4700 h1        1 2RB      0.066033
     25 HAAA        1.5600   -0.2000   -1.7420 h1        1 2RB      0.066033
     26 HAAB        0.4030   -0.6540   -0.3810 h1        1 2RB      0.066033
     27 HAI         2.9710    2.5220    1.4170 ha        1 2RB      0.175500
     28 HAK         3.1270    2.5880    3.9180 ha        1 2RB      0.148500
     29 HAH         1.1650   -1.4300    1.6590 ha        1 2RB      0.175500
     30 HAJ         1.3120   -1.3700    4.1020 ha        1 2RB      0.148500
     31 HNAN        2.7440   -1.3370    5.7650 hn        1 2RB      0.462800
     32 HAG         2.6800    1.0480    8.5160 h4        1 2RB      0.035800
     33 HAL         3.9390    2.0980   10.0500 ha        1 2RB      0.164000
     34 HOAC        7.0450   -0.8370   13.1930 ho        1 2RB      0.457000
     35 HOAD        4.9230   -3.1190    9.7940 ho        1 2RB      0.457000
     36 HAN2        1.4440   -0.8050    6.6810 hn        1 2RB      0.462800
@<TRIPOS>BOND
     1    1    2 1   
     2    1   24 1   
     3    1   25 1   
     4    1   26 1   
     5    2    3 1   
     6    3    4 ar  
     7    3    6 ar  
     8    4    5 ar  
     9    4   27 1   
    10    5    8 ar  
    11    5   28 1   
    12    6    7 ar  
    13    6   29 1   
    14    7    8 ar  
    15    7   30 1   
    16    8    9 1   
    17    9   10 2   
    18    9   11 1   
    19   11   12 1   
    20   11   31 1   
    21   11   36 1   
    22   12   13 2   
    23   13   14 1   
    24   13   32 1   
    25   14   15 ar  
    26   14   22 ar  
    27   15   16 ar  
    28   15   33 1   
    29   16   17 1   
    30   16   18 ar  
    31   18   19 1   
    32   18   20 ar  
    33   19   34 1   
    34   20   21 1   
    35   20   22 ar  
    36   22   23 1   
    37   23   35 1   
@<TRIPOS>SUBSTRUCTURE
     1 2RB         1 TEMP              0 ****  ****    0 ROOT
