@<TRIPOS>MOLECULE
2RB
   35    31     1     0     0
SMALL
bcc


@<TRIPOS>ATOM
      1 CAA         0.5080   -5.5490    0.6050 c3        1 2RB     -0.078000
      2 OAO         1.2390   -4.6320   -0.2350 os        1 2RB     -0.207000
      3 CAR         0.4670   -3.5040   -0.6660 c2        1 2RB      0.104000
      4 CAI         0.2450   -2.4400    0.2050 c2        1 2RB     -0.220000
      5 CAK        -0.4570   -1.3340   -0.2230 c1        1 2RB     -0.033000
      6 CAH        -0.0180   -3.4510   -1.9640 c1        1 2RB     -0.169000
      7 CAJ        -0.7220   -2.3420   -2.3940 c1        1 2RB     -0.052000
      8 CAV        -0.9440   -1.2800   -1.5270 c1        1 2RB     -0.143000
      9 CAP        -1.6480   -0.0160   -2.0300 c2        1 2RB      0.380000
     10 OAB        -2.0720    0.0310   -3.1660 o         1 2RB     -0.343000
     11 NAN        -1.8020    1.1430   -1.1410 n         1 2RB     -0.324000
     12 NAM        -2.3390    0.9740    0.1270 n2        1 2RB     -0.017000
     13 CAG        -1.7280    1.5060    1.1870 c1        1 2RB     -0.116000
     14 CAS        -0.4250    2.3090    1.0030 c1        1 2RB     -0.224000
     15 CAL         0.7410    1.6590    0.7280 c2        1 2RB     -0.016000
     16 CAQ         1.9320    2.3660    0.6710 c1        1 2RB     -0.224000
     17 BRAE        3.5370    1.4690    0.3050 br        1 2RB      0.083000
     18 CAT         1.9390    3.7330    0.8940 c2        1 2RB      0.182500
     19 OAC         3.1290    4.4550    0.7600 oh        1 2RB     -0.228500
     20 CAW         0.7680    4.3890    1.1710 c1        1 2RB     -0.297000
     21 BRAF        0.7600    6.2820    1.3380 br        1 2RB      0.083000
     22 CAU        -0.4190    3.6870    1.2280 c2        1 2RB      0.182500
     23 OAD        -1.6210    4.3570    1.5320 oh        1 2RB     -0.228500
     24 HAA        -0.0760   -6.1130    0.0450 h1        1 2RB      0.086000
     25 HAAA       -0.0390   -5.0410    1.2420 h1        1 2RB      0.086000
     26 HAAB        1.1490   -6.1290    1.1050 h1        1 2RB      0.086000
     27 HAI         0.5900   -2.4780    1.1270 ha        1 2RB      0.142000
     28 HAK        -0.6090   -0.6040    0.3750 ha        1 2RB      0.148000
     29 HAH         0.1410   -4.2120   -2.5870 ha        1 2RB      0.155000
     30 HAJ        -1.0560   -2.3060   -3.2930 ha        1 2RB      0.151000
     31 HNAN       -1.6190    2.0100   -1.4630 hn        1 2RB      0.225000
     32 HAG        -2.1040    1.3870    2.0740 ha        1 2RB      0.180000
     33 HAL         0.7490    0.6480    0.6410 ha        1 2RB      0.162000
     34 HOAC        3.4120    4.3980   -0.0600 ho        1 2RB      0.241000
     35 HOAD       -1.6050    4.6270    2.3850 ho        1 2RB      0.241000
@<TRIPOS>BOND
     1    1    2 1   
     2    1   24 1   
     3    1   25 1   
     4    1   26 1   
     5    2    3 1   
     6    3    4 1   
     7    3    6 1   
     8    4    5 1   
     9    4   27 1   
    10    5   28 1   
    11    6   29 1   
    12    7    8 1   
    13    7   30 1   
    14    8    9 1   
    15    9   10 1   
    16    9   11 1   
    17   11   12 1   
    18   11   31 1   
    19   12   13 1   
    20   13   32 1   
    21   14   15 1   
    22   14   22 1   
    23   15   16 1   
    24   15   33 1   
    25   16   18 1   
    26   18   19 1   
    27   18   20 1   
    28   19   34 1   
    29   20   22 1   
    30   22   23 1   
    31   23   35 1   
@<TRIPOS>SUBSTRUCTURE
     1 2RB         1 TEMP              0 ****  ****    0 ROOT
