@<TRIPOS>MOLECULE
2RB
   36    37     1     0     0
SMALL
bcc


@<TRIPOS>ATOM
      1 CAA         1.5130   -0.6250   -0.6600 c3        1 2RB      0.102700
      2 OAO         2.0200    0.5240    0.0260 os        1 2RB     -0.293900
      3 CAR         2.0560    0.4760    1.3870 ca        1 2RB      0.218100
      4 CAI         2.5570    1.6400    2.0140 ca        1 2RB     -0.190000
      5 CAK         2.6350    1.6900    3.3930 ca        1 2RB     -0.023000
      6 CAH         1.6330   -0.6230    2.1620 ca        1 2RB     -0.190000
      7 CAJ         1.7230   -0.5630    3.5440 ca        1 2RB     -0.023000
      8 CAV         2.2300    0.5850    4.1760 ca        1 2RB     -0.261600
      9 CAP         2.3430    0.7340    5.6170 c         1 2RB      0.572700
     10 OAB         2.3960    1.7660    6.2740 o         1 2RB     -0.458100
     11 NAN         2.4230   -0.5760    6.4230 n4        1 2RB     -0.368900
     12 NAM         3.2900   -0.6770    7.5140 n2        1 2RB     -0.547400
     13 CAG         3.2870    0.1950    8.4950 ce        1 2RB      0.578800
     14 CAS         4.1650    0.1060    9.6470 ca        1 2RB     -0.287900
     15 CAL         4.3710    1.3050   10.3640 ca        1 2RB      0.014000
     16 CAQ         5.2060    1.3730   11.4640 ca        1 2RB     -0.108900
     17 BRAE        5.4140    3.0190   12.3260 br        1 2RB     -0.004100
     18 CAT         5.8720    0.1910   11.8940 ca        1 2RB      0.288100
     19 OAC         6.6860    0.3180   12.9710 oh        1 2RB     -0.442100
     20 CAW         5.6710   -1.0300   11.2190 ca        1 2RB     -0.247900
     21 BRAF        6.5350   -2.5900   11.8030 br        1 2RB     -0.033100
     22 CAU         4.8130   -1.0690   10.0970 ca        1 2RB      0.287100
     23 OAD         4.5440   -2.2200    9.4250 oh        1 2RB     -0.468100
     24 HAA         1.5940   -0.3260   -1.7370 h1        1 2RB      0.066033
     25 HAAA        2.1470   -1.5180   -0.4450 h1        1 2RB      0.066033
     26 HAAB        0.4490   -0.8080   -0.3770 h1        1 2RB      0.066033
     27 HAI         2.8740    2.4930    1.3930 ha        1 2RB      0.175500
     28 HAK         3.0140    2.5990    3.8930 ha        1 2RB      0.148500
     29 HAH         1.2280   -1.5250    1.6780 ha        1 2RB      0.175500
     30 HAJ         1.3590   -1.4270    4.1210 ha        1 2RB      0.148500
     31 HNAN        1.4600   -0.8200    6.7020 hn        1 2RB      0.462800
     32 HAG         2.6300    1.1020    8.5080 h4        1 2RB      0.035800
     33 HAL         3.8510    2.2200   10.0230 ha        1 2RB      0.164000
     34 HOAC        7.0890   -0.5460   13.1860 ho        1 2RB      0.457000
     35 HOAD        5.0460   -2.9550    9.8260 ho        1 2RB      0.457000
     36 HAN2        2.7750   -1.3160    5.7880 hn        1 2RB      0.462800
@<TRIPOS>BOND
     1    1    2 1   
     2    1   24 1   
     3    1   25 1   
     4    1   26 1   
     5    2    3 1   
     6    3    4 ar  
     7    3    6 ar  
     8    4    5 ar  
     9    4   27 1   
    10    5    8 ar  
    11    5   28 1   
    12    6    7 ar  
    13    6   29 1   
    14    7    8 ar  
    15    7   30 1   
    16    8    9 1   
    17    9   10 2   
    18    9   11 1   
    19   11   12 1   
    20   11   31 1   
    21   11   36 1   
    22   12   13 2   
    23   13   14 1   
    24   13   32 1   
    25   14   15 ar  
    26   14   22 ar  
    27   15   16 ar  
    28   15   33 1   
    29   16   17 1   
    30   16   18 ar  
    31   18   19 1   
    32   18   20 ar  
    33   19   34 1   
    34   20   21 1   
    35   20   22 ar  
    36   22   23 1   
    37   23   35 1   
@<TRIPOS>SUBSTRUCTURE
     1 2RB         1 TEMP              0 ****  ****    0 ROOT
