@<TRIPOS>MOLECULE
2RB
   35    36     1     0     0
SMALL
bcc


@<TRIPOS>ATOM
      1 CAA        -9.3930    2.0170   -0.1870 c3        1 2RB      0.110700
      2 OAO        -8.9420    0.7820    0.3590 os        1 2RB     -0.320900
      3 CAR        -7.6140    0.4720    0.1610 ca        1 2RB      0.153100
      4 CAI        -7.2140   -0.7740    0.6830 ca        1 2RB     -0.189000
      5 CAK        -5.8940   -1.1780    0.5380 ca        1 2RB     -0.055000
      6 CAH        -6.6970    1.2980   -0.5020 ca        1 2RB     -0.189000
      7 CAJ        -5.3740    0.8810   -0.6330 ca        1 2RB     -0.055000
      8 CAV        -4.9660   -0.3480   -0.1100 ca        1 2RB     -0.191600
      9 CAP        -3.5710   -0.8440   -0.2520 c         1 2RB      0.702700
     10 OAB        -3.3040   -2.0150   -0.5530 o         1 2RB     -0.537100
     11 NAN        -2.5730    0.1310   -0.0040 n         1 2RB     -0.334900
     12 NAM        -1.2770   -0.1470   -0.0760 n2        1 2RB     -0.472300
     13 CAG        -0.3620    0.7260    0.2540 ce        1 2RB      0.388800
     14 CAS         1.0720    0.4470    0.1610 ca        1 2RB     -0.253900
     15 CAL         1.9220    1.5050    0.5120 ca        1 2RB     -0.013000
     16 CAQ         3.3060    1.3870    0.4750 ca        1 2RB     -0.107900
     17 BRAE        4.3360    2.8720    0.9660 br        1 2RB     -0.057100
     18 CAT         3.8730    0.1580    0.0690 ca        1 2RB      0.230100
     19 OAC         5.2390    0.0920    0.0490 oh        1 2RB     -0.472100
     20 CAW         3.0530   -0.9280   -0.2900 ca        1 2RB     -0.170900
     21 BRAF        3.8460   -2.5490   -0.8240 br        1 2RB     -0.055100
     22 CAU         1.6450   -0.7800   -0.2440 ca        1 2RB      0.261100
     23 OAD         0.9290   -1.8790   -0.6080 oh        1 2RB     -0.479100
     24 HAA        -9.2620    2.0300   -1.2960 h1        1 2RB      0.049033
     25 HAAA      -10.4790    2.0370    0.0840 h1        1 2RB      0.049033
     26 HAAB       -8.8540    2.8750    0.2830 h1        1 2RB      0.049033
     27 HAI        -7.9520   -1.4110    1.1910 ha        1 2RB      0.151500
     28 HAK        -5.5670   -2.1580    0.9220 ha        1 2RB      0.148000
     29 HAH        -7.0060    2.2650   -0.9230 ha        1 2RB      0.151500
     30 HAJ        -4.6620    1.5260   -1.1730 ha        1 2RB      0.148000
     31 HNAN       -2.8820    1.0200    0.3450 hn        1 2RB      0.301500
     32 HAG        -0.5960    1.7490    0.6260 h4        1 2RB     -0.007200
     33 HAL         1.4740    2.4640    0.8280 ha        1 2RB      0.149000
     34 HOAC        5.5050   -0.7990   -0.2450 ho        1 2RB      0.441000
     35 HOAD       -0.0280   -1.7050   -0.5510 ho        1 2RB      0.474000
@<TRIPOS>BOND
     1    1    2 1   
     2    1   24 1   
     3    1   25 1   
     4    1   26 1   
     5    2    3 1   
     6    3    4 ar  
     7    3    6 ar  
     8    4    5 ar  
     9    4   27 1   
    10    5    8 ar  
    11    5   28 1   
    12    6    7 ar  
    13    6   29 1   
    14    7    8 ar  
    15    7   30 1   
    16    8    9 1   
    17    9   10 2   
    18    9   11 1   
    19   11   12 1   
    20   11   31 1   
    21   12   13 2   
    22   13   14 1   
    23   13   32 1   
    24   14   15 ar  
    25   14   22 ar  
    26   15   16 ar  
    27   15   33 1   
    28   16   17 1   
    29   16   18 ar  
    30   18   19 1   
    31   18   20 ar  
    32   19   34 1   
    33   20   21 1   
    34   20   22 ar  
    35   22   23 1   
    36   23   35 1   
@<TRIPOS>SUBSTRUCTURE
     1 2RB         1 TEMP              0 ****  ****    0 ROOT
