@<TRIPOS>MOLECULE
2RB
   36    37     1     0     0
SMALL
bcc


@<TRIPOS>ATOM
      1 CAA         1.4150   -0.5540   -0.6480 c3        1 2RB      0.102700
      2 OAO         2.0320    0.5470    0.0250 os        1 2RB     -0.293900
      3 CAR         2.0750    0.5050    1.3860 ca        1 2RB      0.218100
      4 CAI         2.6860    1.6230    2.0010 ca        1 2RB     -0.190000
      5 CAK         2.7800    1.6740    3.3790 ca        1 2RB     -0.023000
      6 CAH         1.5600   -0.5450    2.1720 ca        1 2RB     -0.190000
      7 CAJ         1.6660   -0.4840    3.5530 ca        1 2RB     -0.023000
      8 CAV         2.2820    0.6160    4.1730 ca        1 2RB     -0.261600
      9 CAP         2.4200    0.7640    5.6120 c         1 2RB      0.572700
     10 OAB         2.5750    1.7920    6.2610 o         1 2RB     -0.458100
     11 NAN         2.3840   -0.5420    6.4280 n4        1 2RB     -0.368900
     12 NAM         3.2400   -0.7140    7.5180 n2        1 2RB     -0.547400
     13 CAG         3.3180    0.1620    8.4920 ce        1 2RB      0.579800
     14 CAS         4.1860    0.0020    9.6440 ca        1 2RB     -0.287900
     15 CAL         4.5040    1.1820   10.3510 ca        1 2RB      0.014000
     16 CAQ         5.3440    1.1810   11.4490 ca        1 2RB     -0.108900
     17 BRAE        5.7040    2.8080   12.2980 br        1 2RB     -0.004100
     18 CAT         5.8980   -0.0540   11.8880 ca        1 2RB      0.288100
     19 OAC         6.7220    0.0050   12.9640 oh        1 2RB     -0.442100
     20 CAW         5.5830   -1.2560   11.2240 ca        1 2RB     -0.247900
     21 BRAF        6.3000   -2.8860   11.8200 br        1 2RB     -0.033100
     22 CAU         4.7230   -1.2240   10.1030 ca        1 2RB      0.287100
     23 OAD         4.3480   -2.3510    9.4400 oh        1 2RB     -0.468100
     24 HAA         1.9660   -1.5000   -0.4320 h1        1 2RB      0.066033
     25 HAAA        1.5130   -0.2710   -1.7280 h1        1 2RB      0.066033
     26 HAAB        0.3410   -0.6360   -0.3540 h1        1 2RB      0.066033
     27 HAI         3.0760    2.4380    1.3710 ha        1 2RB      0.175500
     28 HAK         3.2460    2.5470    3.8690 ha        1 2RB      0.148500
     29 HAH         1.0690   -1.4090    1.6990 ha        1 2RB      0.175500
     30 HAJ         1.2290   -1.3070    4.1400 ha        1 2RB      0.148500
     31 HNAN        2.6660   -1.3150    5.7960 hn        1 2RB      0.462800
     32 HAG         2.7470    1.1250    8.4990 h4        1 2RB      0.035800
     33 HAL         4.0710    2.1380   10.0030 ha        1 2RB      0.164000
     34 HOAC        7.0440   -0.8900   13.1850 ho        1 2RB      0.457000
     35 HOAD        4.7810   -3.1270    9.8470 ho        1 2RB      0.457000
     36 HAN2        1.4030   -0.6970    6.7090 hn        1 2RB      0.462800
@<TRIPOS>BOND
     1    1    2 1   
     2    1   24 1   
     3    1   25 1   
     4    1   26 1   
     5    2    3 1   
     6    3    4 ar  
     7    3    6 ar  
     8    4    5 ar  
     9    4   27 1   
    10    5    8 ar  
    11    5   28 1   
    12    6    7 ar  
    13    6   29 1   
    14    7    8 ar  
    15    7   30 1   
    16    8    9 1   
    17    9   10 2   
    18    9   11 1   
    19   11   12 1   
    20   11   31 1   
    21   11   36 1   
    22   12   13 2   
    23   13   14 1   
    24   13   32 1   
    25   14   15 ar  
    26   14   22 ar  
    27   15   16 ar  
    28   15   33 1   
    29   16   17 1   
    30   16   18 ar  
    31   18   19 1   
    32   18   20 ar  
    33   19   34 1   
    34   20   21 1   
    35   20   22 ar  
    36   22   23 1   
    37   23   35 1   
@<TRIPOS>SUBSTRUCTURE
     1 2RB         1 TEMP              0 ****  ****    0 ROOT
