@<TRIPOS>MOLECULE
2RC
   64    67     1     0     0
SMALL
bcc


@<TRIPOS>ATOM
      1 F01        -0.4670    0.1250    0.2430 f         1 2RC     -0.177500
      2 C02         0.8520    0.4250    0.2930 cc        1 2RC     -0.134100
      3 C03         1.4300    0.8420    1.4870 cd        1 2RC      0.016000
      4 N04         2.7390    1.1590    1.6370 n2        1 2RC     -0.536200
      5 C05         3.4910    1.0370    0.4850 cd        1 2RC      0.738100
      6 N06         3.0640    0.6230   -0.7380 nc        1 2RC     -0.847000
      7 C07         1.7090    0.3190   -0.9100 cc        1 2RC      0.761600
      8 N08         1.1440   -0.0270   -2.0630 nf        1 2RC     -0.792700
      9 C09         1.8910   -0.2830   -3.2250 ca        1 2RC      0.700300
     10 N10         1.4350    0.2650   -4.3980 nb        1 2RC     -0.694000
     11 C11         2.0150   -0.1180   -5.5670 ca        1 2RC      0.536200
     12 N12         1.5000    0.3560   -6.8060 n         1 2RC     -0.452300
     13 C13         1.8390   -0.3330   -7.9660 c         1 2RC      0.686500
     14 O14         1.3050   -0.0690   -9.0600 o         1 2RC     -0.629500
     15 C15         2.8300   -1.5120   -7.8970 c3        1 2RC      0.083800
     16 O16         3.7230   -1.4230   -6.7750 os        1 2RC     -0.321900
     17 C17         3.0890   -1.0620   -5.5950 ca        1 2RC     -0.118200
     18 C18         3.5750   -1.5970   -4.4010 ca        1 2RC     -0.085000
     19 C19         2.9870   -1.2070   -3.2110 ca        1 2RC     -0.301300
     20 C20         3.7360   -1.4710   -9.1230 c3        1 2RC     -0.097100
     21 C21         2.0400   -2.8120   -7.8360 c3        1 2RC     -0.097100
     22 C22         0.8900    1.6910   -6.9180 c3        1 2RC      0.348800
     23 O23         1.8450    2.6550   -7.2130 os        1 2RC     -0.592200
     24 P24         1.5710    3.7010   -8.4740 p5        1 2RC      1.436800
     25 O25         0.1610    3.5710   -8.8890 o         1 2RC     -0.836500
     26 O26         1.7520    5.0510   -7.5730 oh        1 2RC     -0.772400
     27 O27         2.7670    3.6790   -9.3390 o         1 2RC     -0.836500
     28 N28         4.8710    1.4540    0.5310 nh        1 2RC     -0.666600
     29 C29         5.8050    0.9620    1.4330 ca        1 2RC      0.263600
     30 C30         7.1810    1.2080    1.1590 ca        1 2RC     -0.291000
     31 C31         8.1620    0.8260    2.0710 ca        1 2RC      0.165100
     32 O32         9.5120    1.0730    1.8920 os        1 2RC     -0.328900
     33 C33         9.8970    1.5190    0.5970 c3        1 2RC      0.114200
     34 C34         7.8270    0.1610    3.2670 ca        1 2RC     -0.037900
     35 O35         8.8230   -0.3230    4.0990 os        1 2RC     -0.311900
     36 C36         9.0330    0.4970    5.2480 c3        1 2RC      0.116700
     37 C37         6.4640   -0.0790    3.5330 ca        1 2RC      0.165100
     38 O38         6.2080   -0.6940    4.7470 os        1 2RC     -0.328900
     39 C39         4.8500   -1.0410    4.9970 c3        1 2RC      0.114200
     40 C40         5.4660    0.2980    2.6350 ca        1 2RC     -0.291000
     41 H031        0.8190    0.9370    2.4000 h4        1 2RC      0.131000
     42 H081        2.6500    5.1690   -7.2920 ho        1 2RC      0.421000
     43 H181        4.4170   -2.3020   -4.4230 ha        1 2RC      0.123000
     44 H191        3.3560   -1.6020   -2.2560 ha        1 2RC      0.140000
     45 H203        4.3450   -0.5360   -9.1100 hc        1 2RC      0.046867
     46 H202        3.1040   -1.4830  -10.0420 hc        1 2RC      0.046867
     47 H201        4.4190   -2.3520   -9.1170 hc        1 2RC      0.046867
     48 H212        1.4560   -2.8600   -6.8860 hc        1 2RC      0.046867
     49 H213        1.3400   -2.8640   -8.7030 hc        1 2RC      0.046867
     50 H211        2.7390   -3.6810   -7.8700 hc        1 2RC      0.046867
     51 H222        0.1160    1.6450   -7.7450 h2        1 2RC      0.077200
     52 H221        0.4140    1.9340   -5.9230 h2        1 2RC      0.077200
     53 H281        5.2440    1.6530   -0.3790 hn        1 2RC      0.433800
     54 H301        7.4660    1.7110    0.2250 ha        1 2RC      0.158500
     55 H333        9.5060    2.5480    0.4060 h1        1 2RC      0.041200
     56 H331       11.0150    1.5270    0.6450 h1        1 2RC      0.041200
     57 H332        9.5420    0.8140   -0.1930 h1        1 2RC      0.041200
     58 H363        8.0970    0.5590    5.8550 h1        1 2RC      0.028367
     59 H362        9.8390   -0.0320    5.8140 h1        1 2RC      0.028367
     60 H361        9.3680    1.5170    4.9430 h1        1 2RC      0.028367
     61 H391        4.4650   -1.7320    4.2080 h1        1 2RC      0.041200
     62 H392        4.2130   -0.1250    5.0580 h1        1 2RC      0.041200
     63 H393        4.8940   -1.5590    5.9880 h1        1 2RC      0.041200
     64 H401        4.4130    0.0870    2.8680 ha        1 2RC      0.158500
@<TRIPOS>BOND
     1    1    2 1   
     2    2    3 2   
     3    2    7 1   
     4    3    4 1   
     5    3   41 1   
     6    4    5 1   
     7    5    6 2   
     8    5   28 1   
     9    6    7 1   
    10    7    8 2   
    11    8    9 1   
    12    9   10 ar  
    13    9   19 ar  
    14   10   11 ar  
    15   11   12 1   
    16   11   17 ar  
    17   12   13 1   
    18   12   22 1   
    19   13   14 2   
    20   13   15 1   
    21   15   16 1   
    22   15   20 1   
    23   15   21 1   
    24   16   17 1   
    25   17   18 ar  
    26   18   19 ar  
    27   18   43 1   
    28   19   44 1   
    29   20   45 1   
    30   20   46 1   
    31   20   47 1   
    32   21   48 1   
    33   21   49 1   
    34   21   50 1   
    35   22   23 1   
    36   22   51 1   
    37   22   52 1   
    38   23   24 1   
    39   24   25 1   
    40   24   26 1   
    41   24   27 1   
    42   26   42 1   
    43   28   29 1   
    44   28   53 1   
    45   29   30 ar  
    46   29   40 ar  
    47   30   31 ar  
    48   30   54 1   
    49   31   32 1   
    50   31   34 ar  
    51   32   33 1   
    52   33   55 1   
    53   33   56 1   
    54   33   57 1   
    55   34   35 1   
    56   34   37 ar  
    57   35   36 1   
    58   36   58 1   
    59   36   59 1   
    60   36   60 1   
    61   37   38 1   
    62   37   40 ar  
    63   38   39 1   
    64   39   61 1   
    65   39   62 1   
    66   39   63 1   
    67   40   64 1   
@<TRIPOS>SUBSTRUCTURE
     1 2RC         1 TEMP              0 ****  ****    0 ROOT
