@<TRIPOS>MOLECULE
2RC
   64    67     1     0     0
SMALL
bcc


@<TRIPOS>ATOM
      1 F01        -0.3820   -0.4660    0.1500 f         1 2RC     -0.178500
      2 C02         0.9690   -0.5340    0.2170 cc        1 2RC     -0.140100
      3 C03         1.6100   -0.5350    1.4500 cd        1 2RC      0.023000
      4 N04         2.9510   -0.6130    1.6180 n2        1 2RC     -0.553200
      5 C05         3.6740   -0.6940    0.4440 cd        1 2RC      0.742100
      6 N06         3.1790   -0.6870   -0.8260 nc        1 2RC     -0.852000
      7 C07         1.7960   -0.6030   -1.0090 cc        1 2RC      0.765600
      8 N08         1.1870   -0.5400   -2.1900 nf        1 2RC     -0.796700
      9 C09         1.8680   -0.7390   -3.4020 ca        1 2RC      0.702300
     10 N10         1.6020    0.1360   -4.4250 nb        1 2RC     -0.695000
     11 C11         2.0890   -0.1410   -5.6650 ca        1 2RC      0.536200
     12 N12         1.7480    0.6950   -6.7670 n         1 2RC     -0.452300
     13 C13         1.9190    0.1900   -8.0520 c         1 2RC      0.686500
     14 O14         1.5000    0.8030   -9.0530 o         1 2RC     -0.629500
     15 C15         2.5570   -1.1980   -8.2530 c3        1 2RC      0.083800
     16 O16         3.4170   -1.5780   -7.1660 os        1 2RC     -0.322900
     17 C17         2.8740   -1.3080   -5.9170 ca        1 2RC     -0.120200
     18 C18         3.1740   -2.1830   -4.8720 ca        1 2RC     -0.086000
     19 C19         2.6820   -1.9020   -3.6090 ca        1 2RC     -0.301300
     20 C20         3.4680   -1.1540   -9.4750 c3        1 2RC     -0.097100
     21 C21         1.4480   -2.2270   -8.4270 c3        1 2RC     -0.097100
     22 C22         1.5220    2.1380   -6.5870 c3        1 2RC      0.348800
     23 O23         2.7070    2.8510   -6.7110 os        1 2RC     -0.592200
     24 P24         2.7550    4.1640   -7.7260 p5        1 2RC      1.436800
     25 O25         1.3730    4.5030   -8.1160 o         1 2RC     -0.836500
     26 O26         3.2680    5.2060   -6.5780 oh        1 2RC     -0.772400
     27 O27         3.9230    3.9990   -8.6140 o         1 2RC     -0.836500
     28 N28         5.1060   -0.8540    0.5130 nh        1 2RC     -0.664600
     29 C29         5.8860   -0.2550    1.5100 ca        1 2RC      0.237600
     30 C30         7.0790    0.4160    1.1300 ca        1 2RC     -0.265000
     31 C31         7.9460    0.9210    2.0980 ca        1 2RC      0.152600
     32 O32         9.1200    1.5940    1.8070 os        1 2RC     -0.327400
     33 C33         9.3890    1.8110    0.4270 c3        1 2RC      0.112700
     34 C34         7.6650    0.7740    3.4710 ca        1 2RC     -0.019900
     35 O35         8.5920    1.1750    4.4190 os        1 2RC     -0.314900
     36 C36         8.2610    2.4240    5.0260 c3        1 2RC      0.117700
     37 C37         6.4680    0.1280    3.8410 ca        1 2RC      0.152600
     38 O38         6.2400    0.0590    5.2050 os        1 2RC     -0.327400
     39 C39         4.9950   -0.5080    5.5990 c3        1 2RC      0.112700
     40 C40         5.5960   -0.3960    2.8850 ca        1 2RC     -0.265000
     41 H031        1.0250   -0.4730    2.3840 h4        1 2RC      0.128000
     42 H081        4.1590    5.0210   -6.3080 ho        1 2RC      0.421000
     43 H181        3.8000   -3.0650   -5.0620 ha        1 2RC      0.122000
     44 H191        2.9120   -2.5640   -2.7650 ha        1 2RC      0.140000
     45 H203        4.3040   -0.4360   -9.2960 hc        1 2RC      0.046700
     46 H202        2.8750   -0.8120  -10.3560 hc        1 2RC      0.046700
     47 H201        3.8910   -2.1670   -9.6680 hc        1 2RC      0.046700
     48 H212        0.7780   -1.9150   -9.2630 hc        1 2RC      0.046700
     49 H213        0.8510   -2.3080   -7.4870 hc        1 2RC      0.046700
     50 H211        1.8890   -3.2250   -8.6580 hc        1 2RC      0.046700
     51 H222        0.7840    2.4690   -7.3810 h2        1 2RC      0.077200
     52 H221        1.1040    2.2920   -5.5490 h2        1 2RC      0.077200
     53 H281        5.5260   -0.7860   -0.3980 hn        1 2RC      0.422800
     54 H301        7.3100    0.5470    0.0630 ha        1 2RC      0.161500
     55 H333        9.5260    0.8390   -0.1060 h1        1 2RC      0.042033
     56 H331       10.3470    2.3910    0.4380 h1        1 2RC      0.042033
     57 H332        8.5740    2.4070   -0.0500 h1        1 2RC      0.042033
     58 H363        9.0860    2.5930    5.7610 h1        1 2RC      0.030033
     59 H362        7.2740    2.3520    5.5440 h1        1 2RC      0.030033
     60 H361        8.2410    3.2360    4.2590 h1        1 2RC      0.030033
     61 H391        4.1410    0.0520    5.1470 h1        1 2RC      0.042033
     62 H392        5.0000   -0.3950    6.7130 h1        1 2RC      0.042033
     63 H393        4.9480   -1.5870    5.3140 h1        1 2RC      0.042033
     64 H401        4.6810   -0.9180    3.2000 ha        1 2RC      0.161500
@<TRIPOS>BOND
     1    1    2 1   
     2    2    3 2   
     3    2    7 1   
     4    3    4 1   
     5    3   41 1   
     6    4    5 1   
     7    5    6 2   
     8    5   28 1   
     9    6    7 1   
    10    7    8 2   
    11    8    9 1   
    12    9   10 ar  
    13    9   19 ar  
    14   10   11 ar  
    15   11   12 1   
    16   11   17 ar  
    17   12   13 1   
    18   12   22 1   
    19   13   14 2   
    20   13   15 1   
    21   15   16 1   
    22   15   20 1   
    23   15   21 1   
    24   16   17 1   
    25   17   18 ar  
    26   18   19 ar  
    27   18   43 1   
    28   19   44 1   
    29   20   45 1   
    30   20   46 1   
    31   20   47 1   
    32   21   48 1   
    33   21   49 1   
    34   21   50 1   
    35   22   23 1   
    36   22   51 1   
    37   22   52 1   
    38   23   24 1   
    39   24   25 1   
    40   24   26 1   
    41   24   27 1   
    42   26   42 1   
    43   28   29 1   
    44   28   53 1   
    45   29   30 ar  
    46   29   40 ar  
    47   30   31 ar  
    48   30   54 1   
    49   31   32 1   
    50   31   34 ar  
    51   32   33 1   
    52   33   55 1   
    53   33   56 1   
    54   33   57 1   
    55   34   35 1   
    56   34   37 ar  
    57   35   36 1   
    58   36   58 1   
    59   36   59 1   
    60   36   60 1   
    61   37   38 1   
    62   37   40 ar  
    63   38   39 1   
    64   39   61 1   
    65   39   62 1   
    66   39   63 1   
    67   40   64 1   
@<TRIPOS>SUBSTRUCTURE
     1 2RC         1 TEMP              0 ****  ****    0 ROOT
