@<TRIPOS>MOLECULE
2RC
   64    67     1     0     0
SMALL
bcc


@<TRIPOS>ATOM
      1 F01        -0.4580    0.1340    0.2630 f         1 2RC     -0.177500
      2 C02         0.8620    0.4350    0.3070 cc        1 2RC     -0.134100
      3 C03         1.4440    0.8570    1.4970 cd        1 2RC      0.016000
      4 N04         2.7530    1.1760    1.6410 n2        1 2RC     -0.536200
      5 C05         3.5010    1.0500    0.4860 cd        1 2RC      0.738100
      6 N06         3.0700    0.6310   -0.7340 nc        1 2RC     -0.848000
      7 C07         1.7140    0.3250   -0.8990 cc        1 2RC      0.761600
      8 N08         1.1450   -0.0260   -2.0480 nf        1 2RC     -0.792700
      9 C09         1.8870   -0.2850   -3.2120 ca        1 2RC      0.700300
     10 N10         1.4260    0.2580   -4.3850 nb        1 2RC     -0.694000
     11 C11         2.0020   -0.1300   -5.5550 ca        1 2RC      0.536200
     12 N12         1.4810    0.3390   -6.7950 n         1 2RC     -0.452300
     13 C13         1.8160   -0.3550   -7.9530 c         1 2RC      0.686500
     14 O14         1.2760   -0.0960   -9.0460 o         1 2RC     -0.629500
     15 C15         2.8080   -1.5330   -7.8830 c3        1 2RC      0.083800
     16 O16         3.7060   -1.4380   -6.7650 os        1 2RC     -0.321900
     17 C17         3.0760   -1.0730   -5.5840 ca        1 2RC     -0.118200
     18 C18         3.5680   -1.6020   -4.3910 ca        1 2RC     -0.085000
     19 C19         2.9840   -1.2090   -3.1990 ca        1 2RC     -0.301300
     20 C20         3.7090   -1.4960   -9.1130 c3        1 2RC     -0.097100
     21 C21         2.0200   -2.8330   -7.8140 c3        1 2RC     -0.097100
     22 C22         0.8700    1.6730   -6.9090 c3        1 2RC      0.348800
     23 O23         1.8230    2.6370   -7.2120 os        1 2RC     -0.592200
     24 P24         1.5440    3.6760   -8.4760 p5        1 2RC      1.436800
     25 O25         0.1320    3.5440   -8.8840 o         1 2RC     -0.836500
     26 O26         1.7280    5.0310   -7.5820 oh        1 2RC     -0.772400
     27 O27         2.7360    3.6510   -9.3460 o         1 2RC     -0.836500
     28 N28         4.8810    1.4690    0.5250 nu        1 2RC     -0.667600
     29 C29         5.8190    0.9780    1.4230 ca        1 2RC      0.263600
     30 C30         7.1930    1.2280    1.1460 ca        1 2RC     -0.291000
     31 C31         8.1780    0.8480    2.0540 ca        1 2RC      0.165100
     32 O32         9.5270    1.0990    1.8710 os        1 2RC     -0.328900
     33 C33         9.9060    1.5490    0.5760 c3        1 2RC      0.114200
     34 C34         7.8490    0.1790    3.2490 ca        1 2RC     -0.037900
     35 O35         8.8490   -0.3030    4.0780 os        1 2RC     -0.311900
     36 C36         9.0600    0.5140    5.2280 c3        1 2RC      0.116700
     37 C37         6.4870   -0.0660    3.5190 ca        1 2RC      0.165100
     38 O38         6.2370   -0.6840    4.7320 os        1 2RC     -0.328900
     39 C39         4.8810   -1.0360    4.9860 c3        1 2RC      0.114200
     40 C40         5.4860    0.3100    2.6250 ca        1 2RC     -0.291000
     41 H031        0.8360    0.9550    2.4130 h4        1 2RC      0.131000
     42 H081        2.6270    5.1500   -7.3050 ho        1 2RC      0.421000
     43 H181        4.4100   -2.3070   -4.4130 ha        1 2RC      0.123000
     44 H191        3.3570   -1.5990   -2.2440 ha        1 2RC      0.140000
     45 H203        3.0730   -1.5120  -10.0290 hc        1 2RC      0.046867
     46 H202        4.3170   -0.5600   -9.1070 hc        1 2RC      0.046867
     47 H201        4.3930   -2.3760   -9.1070 hc        1 2RC      0.046867
     48 H212        1.3160   -2.8890   -8.6780 hc        1 2RC      0.046867
     49 H213        2.7190   -3.7020   -7.8470 hc        1 2RC      0.046867
     50 H211        1.4390   -2.8770   -6.8610 hc        1 2RC      0.046867
     51 H222        0.3970    1.9190   -5.9130 h2        1 2RC      0.077200
     52 H221        0.0920    1.6230   -7.7330 h2        1 2RC      0.077200
     53 H281        5.2490    1.6670   -0.3860 hn        1 2RC      0.434800
     54 H301        7.4730    1.7350    0.2120 ha        1 2RC      0.158500
     55 H333       11.0250    1.5610    0.6210 h1        1 2RC      0.041200
     56 H331        9.5520    0.8450   -0.2150 h1        1 2RC      0.041200
     57 H332        9.5120    2.5780    0.3890 h1        1 2RC      0.041200
     58 H363        9.3910    1.5360    4.9240 h1        1 2RC      0.028367
     59 H362        9.8690   -0.0130    5.7900 h1        1 2RC      0.028367
     60 H361        8.1250    0.5720    5.8370 h1        1 2RC      0.028367
     61 H391        4.4950   -1.7260    4.1970 h1        1 2RC      0.041200
     62 H392        4.2420   -0.1210    5.0510 h1        1 2RC      0.041200
     63 H393        4.9290   -1.5550    5.9760 h1        1 2RC      0.041200
     64 H401        4.4340    0.0950    2.8600 ha        1 2RC      0.158500
@<TRIPOS>BOND
     1    1    2 1   
     2    2    3 2   
     3    2    7 1   
     4    3    4 1   
     5    3   41 1   
     6    4    5 1   
     7    5    6 2   
     8    5   28 1   
     9    6    7 1   
    10    7    8 2   
    11    8    9 1   
    12    9   10 ar  
    13    9   19 ar  
    14   10   11 ar  
    15   11   12 1   
    16   11   17 ar  
    17   12   13 1   
    18   12   22 1   
    19   13   14 2   
    20   13   15 1   
    21   15   16 1   
    22   15   20 1   
    23   15   21 1   
    24   16   17 1   
    25   17   18 ar  
    26   18   19 ar  
    27   18   43 1   
    28   19   44 1   
    29   20   45 1   
    30   20   46 1   
    31   20   47 1   
    32   21   48 1   
    33   21   49 1   
    34   21   50 1   
    35   22   23 1   
    36   22   51 1   
    37   22   52 1   
    38   23   24 1   
    39   24   25 1   
    40   24   26 1   
    41   24   27 1   
    42   26   42 1   
    43   28   29 1   
    44   28   53 1   
    45   29   30 ar  
    46   29   40 ar  
    47   30   31 ar  
    48   30   54 1   
    49   31   32 1   
    50   31   34 ar  
    51   32   33 1   
    52   33   55 1   
    53   33   56 1   
    54   33   57 1   
    55   34   35 1   
    56   34   37 ar  
    57   35   36 1   
    58   36   58 1   
    59   36   59 1   
    60   36   60 1   
    61   37   38 1   
    62   37   40 ar  
    63   38   39 1   
    64   39   61 1   
    65   39   62 1   
    66   39   63 1   
    67   40   64 1   
@<TRIPOS>SUBSTRUCTURE
     1 2RC         1 TEMP              0 ****  ****    0 ROOT
