@<TRIPOS>MOLECULE
2RD
   47    47     1     0     0
SMALL
bcc


@<TRIPOS>ATOM
      1 CAA        -0.0050    0.5250    0.3750 c3        1 2RD     -0.092100
      2 CAD         1.4640    0.8490    0.4620 c3        1 2RD     -0.080400
      3 CAE         2.1050    0.2040    1.6730 c3        1 2RD     -0.079400
      4 CAF         3.5800    0.5320    1.7560 c3        1 2RD     -0.079400
      5 CAG         4.2200   -0.1140    2.9670 c3        1 2RD     -0.078400
      6 CAH         5.6950    0.2130    3.0500 c3        1 2RD     -0.079400
      7 CAI         6.3350   -0.4320    4.2600 c3        1 2RD     -0.078400
      8 CAJ         7.8110   -0.1050    4.3430 c3        1 2RD     -0.079400
      9 CAK         8.4520   -0.7510    5.5530 c3        1 2RD     -0.077400
     10 CAL         9.9270   -0.4200    5.6340 c3        1 2RD     -0.079400
     11 CAM        10.5660   -1.0650    6.8470 c3        1 2RD     -0.061400
     12 CAN        12.0290   -0.7160    6.9250 c3        1 2RD     -0.047300
     13 SAR        12.6970   -1.5400    8.3490 ss        1 2RD     -0.204000
     14 CAU        13.9990   -0.5780    8.7830 cc        1 2RD     -0.172700
     15 NAQ        15.3000   -1.1140    8.9610 na        1 2RD     -0.064600
     16 NAO        16.1460   -0.1590    9.3540 nc        1 2RD     -0.213800
     17 NAP        15.5430    0.9650    9.4000 nd        1 2RD     -0.369000
     18 CAT        14.1810    0.8000    9.0630 cd        1 2RD      0.322800
     19 CAS        13.1670    1.9330    9.0100 c         1 2RD      0.843100
     20 OAC        12.8540    2.4900   10.0900 o         1 2RD     -0.808300
     21 OAB        12.6990    2.2210    7.8720 o         1 2RD     -0.808300
     22 HAA1       -0.4580    1.0100   -0.5240 hc        1 2RD      0.030367
     23 HAA2       -0.5440    0.8910    1.2820 hc        1 2RD      0.030367
     24 HAA3       -0.1620   -0.5780    0.2970 hc        1 2RD      0.030367
     25 HAD1        1.6020    1.9620    0.5150 hc        1 2RD      0.038200
     26 HAD2        1.9840    0.4970   -0.4680 hc        1 2RD      0.038200
     27 HAE1        1.5880    0.5570    2.6040 hc        1 2RD      0.038700
     28 HAE2        1.9690   -0.9080    1.6210 hc        1 2RD      0.038700
     29 HAF1        4.0970    0.1790    0.8250 hc        1 2RD      0.039200
     30 HAF2        3.7160    1.6440    1.8080 hc        1 2RD      0.039200
     31 HAG1        3.7040    0.2390    3.8980 hc        1 2RD      0.038200
     32 HAG2        4.0840   -1.2260    2.9160 hc        1 2RD      0.038200
     33 HAH1        5.8320    1.3260    3.1020 hc        1 2RD      0.039200
     34 HAH2        6.2120   -0.1390    2.1180 hc        1 2RD      0.039200
     35 HAI1        6.1990   -1.5450    4.2090 hc        1 2RD      0.036700
     36 HAI2        5.8200   -0.0790    5.1920 hc        1 2RD      0.036700
     37 HAJ1        8.3270   -0.4570    3.4110 hc        1 2RD      0.040200
     38 HAJ2        7.9480    1.0070    4.3960 hc        1 2RD      0.040200
     39 HAK1        8.3150   -1.8630    5.5020 hc        1 2RD      0.035700
     40 HAK2        7.9370   -0.3960    6.4840 hc        1 2RD      0.035700
     41 HAL1       10.0650    0.6920    5.6930 hc        1 2RD      0.047700
     42 HAL2       10.4440   -0.7710    4.7030 hc        1 2RD      0.047700
     43 HAM1       10.4340   -2.1790    6.7940 hc        1 2RD      0.042200
     44 HAM2       10.0460   -0.7090    7.7770 hc        1 2RD      0.042200
     45 HAN1       12.1710    0.3990    7.0220 h1        1 2RD      0.101200
     46 HAN2       12.5670   -1.0570    6.0090 h1        1 2RD      0.101200
     47 HNAQ       15.5420   -2.0740    8.9640 hn        1 2RD      0.299700
@<TRIPOS>BOND
     1    1    2 1   
     2    1   22 1   
     3    1   23 1   
     4    1   24 1   
     5    2    3 1   
     6    2   25 1   
     7    2   26 1   
     8    3    4 1   
     9    3   27 1   
    10    3   28 1   
    11    4    5 1   
    12    4   29 1   
    13    4   30 1   
    14    5    6 1   
    15    5   31 1   
    16    5   32 1   
    17    6    7 1   
    18    6   33 1   
    19    6   34 1   
    20    7    8 1   
    21    7   35 1   
    22    7   36 1   
    23    8    9 1   
    24    8   37 1   
    25    8   38 1   
    26    9   10 1   
    27    9   39 1   
    28    9   40 1   
    29   10   11 1   
    30   10   41 1   
    31   10   42 1   
    32   11   12 1   
    33   11   43 1   
    34   11   44 1   
    35   12   13 1   
    36   12   45 1   
    37   12   46 1   
    38   13   14 1   
    39   14   15 1   
    40   14   18 2   
    41   15   16 1   
    42   15   47 1   
    43   16   17 2   
    44   17   18 1   
    45   18   19 1   
    46   19   20 1   
    47   19   21 1   
@<TRIPOS>SUBSTRUCTURE
     1 2RD         1 TEMP              0 ****  ****    0 ROOT
