@<TRIPOS>MOLECULE
2RD
   47    47     1     0     0
SMALL
bcc


@<TRIPOS>ATOM
      1 CAA        -0.0280   -0.4110    0.4040 c3        1 2RD     -0.092100
      2 CAD         1.4360   -0.7590    0.4880 c3        1 2RD     -0.080400
      3 CAE         2.0920   -0.1180    1.6920 c3        1 2RD     -0.079400
      4 CAF         3.5620   -0.4700    1.7720 c3        1 2RD     -0.079400
      5 CAG         4.2170    0.1710    2.9770 c3        1 2RD     -0.078400
      6 CAH         5.6870   -0.1810    3.0570 c3        1 2RD     -0.079400
      7 CAI         6.3420    0.4600    4.2610 c3        1 2RD     -0.078400
      8 CAJ         7.8120    0.1080    4.3400 c3        1 2RD     -0.079400
      9 CAK         8.4680    0.7490    5.5450 c3        1 2RD     -0.077400
     10 CAL         9.9370    0.3930    5.6230 c3        1 2RD     -0.079400
     11 CAM        10.5920    1.0330    6.8310 c3        1 2RD     -0.061400
     12 CAN        12.0490    0.6580    6.9060 c3        1 2RD     -0.047300
     13 SAR        12.7360    1.4780    8.3230 ss        1 2RD     -0.204000
     14 CAU        14.0220    0.4940    8.7600 cc        1 2RD     -0.172700
     15 NAQ        15.3330    1.0080    8.9310 na        1 2RD     -0.064600
     16 NAO        16.1630    0.0390    9.3270 nc        1 2RD     -0.213800
     17 NAP        15.5390   -1.0730    9.3800 nd        1 2RD     -0.369000
     18 CAT        14.1790   -0.8850    9.0470 cd        1 2RD      0.322800
     19 CAS        13.1450   -2.0000    9.0030 c         1 2RD      0.843100
     20 OAC        12.8250   -2.5460   10.0860 o         1 2RD     -0.808300
     21 OAB        12.6680   -2.2850    7.8670 o         1 2RD     -0.808300
     22 HAA1       -0.4920   -0.8930   -0.4900 hc        1 2RD      0.030367
     23 HAA2       -0.1670    0.6940    0.3210 hc        1 2RD      0.030367
     24 HAA3       -0.5690   -0.7630    1.3160 hc        1 2RD      0.030367
     25 HAD1        1.9580   -0.4200   -0.4460 hc        1 2RD      0.038200
     26 HAD2        1.5560   -1.8730    0.5470 hc        1 2RD      0.038200
     27 HAE1        1.9750    0.9970    1.6350 hc        1 2RD      0.038700
     28 HAE2        1.5730   -0.4570    2.6270 hc        1 2RD      0.038700
     29 HAF1        3.6790   -1.5840    1.8300 hc        1 2RD      0.039200
     30 HAF2        4.0810   -0.1310    0.8370 hc        1 2RD      0.039200
     31 HAG1        4.1000    1.2860    2.9200 hc        1 2RD      0.038200
     32 HAG2        3.6980   -0.1680    3.9120 hc        1 2RD      0.038200
     33 HAH1        6.2060    0.1580    2.1220 hc        1 2RD      0.039200
     34 HAH2        5.8040   -1.2950    3.1150 hc        1 2RD      0.039200
     35 HAI1        5.8240    0.1210    5.1960 hc        1 2RD      0.036700
     36 HAI2        6.2250    1.5750    4.2050 hc        1 2RD      0.036700
     37 HAJ1        7.9300   -1.0060    4.3990 hc        1 2RD      0.040200
     38 HAJ2        8.3310    0.4460    3.4050 hc        1 2RD      0.040200
     39 HAK1        7.9500    0.4090    6.4800 hc        1 2RD      0.035700
     40 HAK2        8.3510    1.8630    5.4890 hc        1 2RD      0.035700
     41 HAL1       10.4570    0.7300    4.6890 hc        1 2RD      0.047700
     42 HAL2       10.0560   -0.7220    5.6880 hc        1 2RD      0.047700
     43 HAM1       10.0690    0.6910    7.7640 hc        1 2RD      0.042200
     44 HAM2       10.4800    2.1480    6.7720 hc        1 2RD      0.042200
     45 HAN1       12.5900    0.9850    5.9870 h1        1 2RD      0.101200
     46 HAN2       12.1710   -0.4590    7.0080 h1        1 2RD      0.101200
     47 HNAQ       15.5920    1.9630    8.9280 hn        1 2RD      0.299700
@<TRIPOS>BOND
     1    1    2 1   
     2    1   22 1   
     3    1   23 1   
     4    1   24 1   
     5    2    3 1   
     6    2   25 1   
     7    2   26 1   
     8    3    4 1   
     9    3   27 1   
    10    3   28 1   
    11    4    5 1   
    12    4   29 1   
    13    4   30 1   
    14    5    6 1   
    15    5   31 1   
    16    5   32 1   
    17    6    7 1   
    18    6   33 1   
    19    6   34 1   
    20    7    8 1   
    21    7   35 1   
    22    7   36 1   
    23    8    9 1   
    24    8   37 1   
    25    8   38 1   
    26    9   10 1   
    27    9   39 1   
    28    9   40 1   
    29   10   11 1   
    30   10   41 1   
    31   10   42 1   
    32   11   12 1   
    33   11   43 1   
    34   11   44 1   
    35   12   13 1   
    36   12   45 1   
    37   12   46 1   
    38   13   14 1   
    39   14   15 1   
    40   14   18 2   
    41   15   16 1   
    42   15   47 1   
    43   16   17 2   
    44   17   18 1   
    45   18   19 1   
    46   19   20 1   
    47   19   21 1   
@<TRIPOS>SUBSTRUCTURE
     1 2RD         1 TEMP              0 ****  ****    0 ROOT
