@<TRIPOS>MOLECULE
2RD
   47    47     1     0     0
SMALL
bcc


@<TRIPOS>ATOM
      1 CAA        11.4490   -0.6760    0.4280 c3        1 2RD     -0.092100
      2 CAD        10.1940    0.0910    0.7520 c3        1 2RD     -0.080400
      3 CAE         8.9720   -0.5540    0.1340 c3        1 2RD     -0.079400
      4 CAF         7.7130    0.2190    0.4620 c3        1 2RD     -0.079400
      5 CAG         6.4920   -0.4270   -0.1570 c3        1 2RD     -0.078400
      6 CAH         5.2340    0.3470    0.1720 c3        1 2RD     -0.079400
      7 CAI         4.0130   -0.2980   -0.4470 c3        1 2RD     -0.078400
      8 CAJ         2.7540    0.4760   -0.1180 c3        1 2RD     -0.079400
      9 CAK         1.5330   -0.1700   -0.7370 c3        1 2RD     -0.077400
     10 CAL         0.2750    0.6050   -0.4050 c3        1 2RD     -0.079400
     11 CAM        -0.9470   -0.0440   -1.0220 c3        1 2RD     -0.061400
     12 CAN        -2.1920    0.7280   -0.6710 c3        1 2RD     -0.047300
     13 SAR        -3.5600   -0.0830   -1.4610 ss        1 2RD     -0.204000
     14 CAU        -4.8660    0.3140   -0.4880 cc        1 2RD     -0.172700
     15 NAQ        -6.0460    0.8950   -1.0190 na        1 2RD     -0.064600
     16 NAO        -6.9540    1.0670   -0.0540 nc        1 2RD     -0.213800
     17 NAP        -6.4670    0.7090    1.0690 nd        1 2RD     -0.369000
     18 CAT        -5.1560    0.2120    0.8960 cd        1 2RD      0.322800
     19 CAS        -4.2740   -0.2970    2.0270 c         1 2RD      0.843100
     20 OAC        -4.6200   -1.3540    2.6090 o         1 2RD     -0.808300
     21 OAB        -3.2410    0.3810    2.2880 o         1 2RD     -0.808300
     22 HAA1       12.3370   -0.1840    0.8930 hc        1 2RD      0.030367
     23 HAA2       11.3830   -1.7220    0.8140 hc        1 2RD      0.030367
     24 HAA3       11.6100   -0.7210   -0.6760 hc        1 2RD      0.030367
     25 HAD1       10.0630    0.1460    1.8650 hc        1 2RD      0.038200
     26 HAD2       10.2890    1.1450    0.3790 hc        1 2RD      0.038200
     27 HAE1        9.1000   -0.6100   -0.9800 hc        1 2RD      0.038700
     28 HAE2        8.8740   -1.6080    0.5070 hc        1 2RD      0.038700
     29 HAF1        7.5850    0.2740    1.5750 hc        1 2RD      0.039200
     30 HAF2        7.8110    1.2730    0.0890 hc        1 2RD      0.039200
     31 HAG1        6.6200   -0.4820   -1.2700 hc        1 2RD      0.038200
     32 HAG2        6.3940   -1.4800    0.2170 hc        1 2RD      0.038200
     33 HAH1        5.1060    0.4020    1.2850 hc        1 2RD      0.039200
     34 HAH2        5.3320    1.4010   -0.2020 hc        1 2RD      0.039200
     35 HAI1        4.1400   -0.3540   -1.5610 hc        1 2RD      0.036700
     36 HAI2        3.9140   -1.3510   -0.0730 hc        1 2RD      0.036700
     37 HAJ1        2.6250    0.5300    0.9950 hc        1 2RD      0.040200
     38 HAJ2        2.8520    1.5290   -0.4910 hc        1 2RD      0.040200
     39 HAK1        1.6590   -0.2260   -1.8500 hc        1 2RD      0.035700
     40 HAK2        1.4330   -1.2220   -0.3620 hc        1 2RD      0.035700
     41 HAL1        0.1430    0.6560    0.7090 hc        1 2RD      0.047700
     42 HAL2        0.3720    1.6590   -0.7770 hc        1 2RD      0.047700
     43 HAM1       -0.8230   -0.0950   -2.1360 hc        1 2RD      0.042200
     44 HAM2       -1.0400   -1.0980   -0.6440 hc        1 2RD      0.042200
     45 HAN1       -2.3490    0.7490    0.4460 h1        1 2RD      0.101200
     46 HAN2       -2.1220    1.7800   -1.0320 h1        1 2RD      0.101200
     47 HNAQ       -6.2600    1.0100   -1.9790 hn        1 2RD      0.299700
@<TRIPOS>BOND
     1    1    2 1   
     2    1   22 1   
     3    1   23 1   
     4    1   24 1   
     5    2    3 1   
     6    2   25 1   
     7    2   26 1   
     8    3    4 1   
     9    3   27 1   
    10    3   28 1   
    11    4    5 1   
    12    4   29 1   
    13    4   30 1   
    14    5    6 1   
    15    5   31 1   
    16    5   32 1   
    17    6    7 1   
    18    6   33 1   
    19    6   34 1   
    20    7    8 1   
    21    7   35 1   
    22    7   36 1   
    23    8    9 1   
    24    8   37 1   
    25    8   38 1   
    26    9   10 1   
    27    9   39 1   
    28    9   40 1   
    29   10   11 1   
    30   10   41 1   
    31   10   42 1   
    32   11   12 1   
    33   11   43 1   
    34   11   44 1   
    35   12   13 1   
    36   12   45 1   
    37   12   46 1   
    38   13   14 1   
    39   14   15 1   
    40   14   18 2   
    41   15   16 1   
    42   15   47 1   
    43   16   17 2   
    44   17   18 1   
    45   18   19 1   
    46   19   20 1   
    47   19   21 1   
@<TRIPOS>SUBSTRUCTURE
     1 2RD         1 TEMP              0 ****  ****    0 ROOT
