@<TRIPOS>MOLECULE
2RD
   47    45     1     0     0
SMALL
bcc


@<TRIPOS>ATOM
      1 CAA        -6.5890   -3.0980    4.0200 c3        1 2RD     -0.092100
      2 CAD        -6.2500   -2.1780    2.8680 c3        1 2RD     -0.080400
      3 CAE        -5.0460   -2.7180    2.1280 c3        1 2RD     -0.079400
      4 CAF        -4.5460   -1.6760    1.1510 c3        1 2RD     -0.079400
      5 CAG        -3.2650   -2.1620    0.5080 c3        1 2RD     -0.078400
      6 CAH        -2.5680   -1.0020   -0.1680 c3        1 2RD     -0.079400
      7 CAI        -1.1940   -1.4370   -0.6270 c3        1 2RD     -0.079400
      8 CAJ        -0.2060   -0.3170   -0.3900 c3        1 2RD     -0.079400
      9 CAK         1.0140   -0.5280   -1.2600 c3        1 2RD     -0.076400
     10 CAL         2.2310    0.0510   -0.5720 c3        1 2RD     -0.078400
     11 CAM         2.7760    1.1990   -1.3930 c3        1 2RD     -0.061400
     12 CAN         4.1790    1.5260   -0.9330 c3        1 2RD     -0.047300
     13 SAR         4.4680    3.2670   -1.1080 ss        1 2RD     -0.217700
     14 CAU         6.1870    3.5510   -1.4360 ce        1 2RD      0.008100
     15 NAQ         7.2140    2.9950   -0.7840 ne        1 2RD     -0.349600
     16 NAO         8.3630    3.4990   -1.3030 nf        1 2RD     -0.044000
     17 NAP         8.0310    4.3750   -2.2850 nf        1 2RD     -0.326400
     18 CAT         6.6980    4.4120   -2.3740 c1        1 2RD      0.188500
     19 CAS         5.8930    5.2850   -3.3110 c1        1 2RD      0.869000
     20 OAC         5.6710    6.4890   -3.0150 o         1 2RD     -0.776500
     21 OAB         5.4620    4.8140   -4.3960 o         1 2RD     -0.776500
     22 HAA1       -5.9050   -3.0130    4.7170 hc        1 2RD      0.030367
     23 HAA2       -6.6170   -4.0240    3.7010 hc        1 2RD      0.030367
     24 HAA3       -7.4630   -2.8520    4.3890 hc        1 2RD      0.030367
     25 HAD1       -6.0480   -1.2850    3.2120 hc        1 2RD      0.038200
     26 HAD2       -7.0130   -2.1270    2.2570 hc        1 2RD      0.038200
     27 HAE1       -4.3380   -2.9310    2.7690 hc        1 2RD      0.038700
     28 HAE2       -5.2990   -3.5270    1.6400 hc        1 2RD      0.038700
     29 HAF1       -4.3740   -0.8390    1.6260 hc        1 2RD      0.038700
     30 HAF2       -5.2210   -1.5270    0.4600 hc        1 2RD      0.038700
     31 HAG1       -2.6790   -2.5400    1.1940 hc        1 2RD      0.038700
     32 HAG2       -3.4740   -2.8490   -0.1560 hc        1 2RD      0.038700
     33 HAH1       -3.0930   -0.7130   -0.9410 hc        1 2RD      0.038200
     34 HAH2       -2.4820   -0.2610    0.4630 hc        1 2RD      0.038200
     35 HAI1       -0.9170   -2.2280   -0.1220 hc        1 2RD      0.037700
     36 HAI2       -1.2210   -1.6520   -1.5800 hc        1 2RD      0.037700
     37 HAJ1       -0.6230    0.5390   -0.6160 hc        1 2RD      0.038700
     38 HAJ2        0.0620   -0.3110    0.5510 hc        1 2RD      0.038700
     39 HAK1        1.1480   -1.4860   -1.4060 hc        1 2RD      0.037200
     40 HAK2        0.8830   -0.0820   -2.1200 hc        1 2RD      0.037200
     41 HAL1        2.9160   -0.6410   -0.4830 hc        1 2RD      0.047700
     42 HAL2        1.9790    0.3760    0.3160 hc        1 2RD      0.047700
     43 HAM1        2.2030    1.9830   -1.2770 hc        1 2RD      0.042200
     44 HAM2        2.7930    0.9440   -2.3370 hc        1 2RD      0.042200
     45 HAN1        4.2820    1.2720    0.0060 h1        1 2RD      0.101200
     46 HAN2        4.8250    1.0320   -1.4770 h1        1 2RD      0.101200
     47 HNAQ        7.1520    2.3900   -0.1040 DU        1 2RD      0.250000
@<TRIPOS>BOND
     1    1    2 1   
     2    1   22 1   
     3    1   23 1   
     4    1   24 1   
     5    2    3 1   
     6    2   25 1   
     7    2   26 1   
     8    3    4 1   
     9    3   27 1   
    10    3   28 1   
    11    4    5 1   
    12    4   29 1   
    13    4   30 1   
    14    5    6 1   
    15    5   31 1   
    16    5   32 1   
    17    6    7 1   
    18    6   33 1   
    19    6   34 1   
    20    7    8 1   
    21    7   35 1   
    22    7   36 1   
    23    8    9 1   
    24    8   37 1   
    25    8   38 1   
    26    9   10 1   
    27    9   39 1   
    28    9   40 1   
    29   10   11 1   
    30   10   41 1   
    31   10   42 1   
    32   11   12 1   
    33   11   43 1   
    34   11   44 1   
    35   12   13 1   
    36   12   45 1   
    37   12   46 1   
    38   13   14 1   
    39   14   15 1   
    40   14   18 2   
    41   15   16 2   
    42   16   17 1   
    43   17   18 2   
    44   19   20 2   
    45   19   21 2   
@<TRIPOS>SUBSTRUCTURE
     1 2RD         1 TEMP              0 ****  ****    0 ROOT
