@<TRIPOS>MOLECULE
2RE
   39    42     1     0     0
SMALL
bcc


@<TRIPOS>ATOM
      1 F01        -0.0870   -0.0390    0.3470 f         1 2RE     -0.140900
      2 C02         1.2650   -0.0420    0.2670 ca        1 2RE      0.127900
      3 C03         2.0370   -0.1750    1.4360 ca        1 2RE     -0.172000
      4 C04         3.4250   -0.1760    1.3460 ca        1 2RE     -0.085500
      5 C05         4.0600   -0.0550    0.1000 ca        1 2RE     -0.129500
      6 C06         5.5110   -0.0400    0.0190 cc        1 2RE      0.388800
      7 C07         6.3390   -0.6120   -0.9870 cd        1 2RE     -0.162600
      8 C08         6.0220   -1.3980   -2.1620 ca        1 2RE      0.024000
      9 C09         4.9690   -2.3260   -2.1400 ca        1 2RE     -0.239800
     10 C10         4.7110   -3.0800   -3.2970 ca        1 2RE      0.396200
     11 N11         5.4210   -2.9670   -4.4370 nb        1 2RE     -0.660000
     12 C12         6.4270   -2.0720   -4.4470 ca        1 2RE      0.396200
     13 C13         6.7680   -1.2690   -3.3450 ca        1 2RE     -0.239800
     14 N14         7.6530   -0.2940   -0.6240 na        1 2RE     -0.301900
     15 C15         7.5960    0.4340    0.5740 cd        1 2RE      0.480000
     16 C16         8.7850    0.9400    1.2560 ca        1 2RE     -0.169500
     17 C17         8.7000    2.1250    1.9990 ca        1 2RE     -0.067000
     18 C18         9.8220    2.6220    2.6560 ca        1 2RE     -0.189000
     19 C19        11.0360    1.9270    2.5710 ca        1 2RE      0.139100
     20 O20        12.1860    2.3580    3.1870 oh        1 2RE     -0.493100
     21 C21        11.1310    0.7330    1.8350 ca        1 2RE     -0.189000
     22 C22        10.0030    0.2470    1.1850 ca        1 2RE     -0.067000
     23 N23         6.3060    0.5990    0.9760 nc        1 2RE     -0.656000
     24 C24         3.2820    0.0820   -1.0580 ca        1 2RE     -0.085500
     25 C25         1.8940    0.0880   -0.9850 ca        1 2RE     -0.172000
     26 H1          1.5380   -0.2720    2.4100 ha        1 2RE      0.150000
     27 H2          4.0290   -0.2700    2.2630 ha        1 2RE      0.149500
     28 H3          4.3560   -2.4540   -1.2360 ha        1 2RE      0.150500
     29 H4          3.8900   -3.8200   -3.3130 h4        1 2RE      0.025600
     30 H5          6.9910   -1.9940   -5.3940 h4        1 2RE      0.025600
     31 H6          7.5910   -0.5470   -3.4260 ha        1 2RE      0.150500
     32 H7          8.4660   -0.5570   -1.1160 hn        1 2RE      0.306700
     33 H8          7.7420    2.6660    2.0670 ha        1 2RE      0.146000
     34 H9          9.7540    3.5520    3.2400 ha        1 2RE      0.148000
     35 H10        11.9810    3.1740    3.6680 ho        1 2RE      0.423000
     36 H11        12.0910    0.2000    1.7880 ha        1 2RE      0.148000
     37 H12        10.0780   -0.6990    0.6280 ha        1 2RE      0.146000
     38 H14         3.7760    0.1860   -2.0370 ha        1 2RE      0.149500
     39 H15         1.2830    0.1980   -1.8930 ha        1 2RE      0.150000
@<TRIPOS>BOND
     1    1    2 1   
     2    2    3 ar  
     3    2   25 ar  
     4    3    4 ar  
     5    3   26 1   
     6    4    5 ar  
     7    4   27 1   
     8    5    6 1   
     9    5   24 ar  
    10    6    7 2   
    11    6   23 1   
    12    7    8 1   
    13    7   14 1   
    14    8    9 ar  
    15    8   13 ar  
    16    9   10 ar  
    17    9   28 1   
    18   10   11 ar  
    19   10   29 1   
    20   11   12 ar  
    21   12   13 ar  
    22   12   30 1   
    23   13   31 1   
    24   14   15 1   
    25   14   32 1   
    26   15   16 1   
    27   15   23 2   
    28   16   17 ar  
    29   16   22 ar  
    30   17   18 ar  
    31   17   33 1   
    32   18   19 ar  
    33   18   34 1   
    34   19   20 1   
    35   19   21 ar  
    36   20   35 1   
    37   21   22 ar  
    38   21   36 1   
    39   22   37 1   
    40   24   25 ar  
    41   24   38 1   
    42   25   39 1   
@<TRIPOS>SUBSTRUCTURE
     1 2RE         1 TEMP              0 ****  ****    0 ROOT
