@<TRIPOS>MOLECULE
2RF
   34    36     1     0     0
SMALL
bcc


@<TRIPOS>ATOM
      1 C01        -0.1610   -0.0590    0.4870 ca        1 2RF     -0.113000
      2 C02         1.2190   -0.1550    0.3030 ca        1 2RF     -0.054000
      3 C03         2.0930    0.1510    1.3600 ca        1 2RF     -0.124800
      4 C04         1.5640    0.5120    2.6140 ca        1 2RF     -0.121000
      5 C05         0.1820    0.5980    2.7860 ca        1 2RF      0.011400
      6 C06        -0.6870    0.3190    1.7200 ca        1 2RF     -0.064000
      7 CL1        -0.4450    1.0320    4.2960 cl        1 2RF     -0.040400
      8 C08         3.5130    0.0710    1.1630 cc        1 2RF      0.075600
      9 C09         4.5360    0.8370    1.6480 cd        1 2RF     -0.191200
     10 C10         5.8710    0.2780    1.1630 c         1 2RF      0.728700
     11 O11         6.9790    0.7290    1.4530 o         1 2RF     -0.550500
     12 N12         5.5590   -0.8240    0.3600 n         1 2RF     -0.589500
     13 C13         4.1590   -1.0140    0.2840 c         1 2RF      0.698700
     14 O14         3.5880   -1.8790   -0.3680 o         1 2RF     -0.482500
     15 N15         4.5130    2.0240    2.4670 n4        1 2RF     -0.460200
     16 C16         4.5920    3.2730    1.6930 ca        1 2RF     -0.106400
     17 C17         5.8380    3.7110    1.2180 ca        1 2RF     -0.045000
     18 C18         5.9190    4.9120    0.5140 ca        1 2RF     -0.075600
     19 C19         4.7500    5.6700    0.2800 ca        1 2RF      0.205100
     20 C20         3.5020    5.2090    0.7560 ca        1 2RF     -0.138000
     21 C21         3.4200    4.0180    1.4540 ca        1 2RF     -0.064000
     22 O22         4.7190    6.8500   -0.3930 oh        1 2RF     -0.452100
     23 CL2         7.4250    5.4390   -0.0470 cl        1 2RF     -0.019400
     24 H011       -0.8400   -0.2970   -0.3490 ha        1 2RF      0.172000
     25 H021        1.6240   -0.4810   -0.6700 ha        1 2RF      0.170000
     26 H041        2.2240    0.6610    3.4810 ha        1 2RF      0.130000
     27 H061       -1.7790    0.3880    1.8630 ha        1 2RF      0.177000
     28 H121        6.2320   -1.3950   -0.0980 hn        1 2RF      0.384500
     29 H151        3.6490    2.0370    3.0270 hn        1 2RF      0.470800
     30 H171        6.7570    3.1150    1.3870 ha        1 2RF      0.189000
     31 H201        2.6020    5.8170    0.5600 ha        1 2RF      0.191000
     32 H211        2.4360    3.6750    1.8160 ha        1 2RF      0.159000
     33 H221        5.6210    7.0900   -0.6770 ho        1 2RF      0.457000
     34 H152        5.3330    1.9840    3.0960 hn        1 2RF      0.470800
@<TRIPOS>BOND
     1    1    2 ar  
     2    1    6 ar  
     3    1   24 1   
     4    2    3 ar  
     5    2   25 1   
     6    3    4 ar  
     7    3    8 1   
     8    4    5 ar  
     9    4   26 1   
    10    5    6 ar  
    11    5    7 1   
    12    6   27 1   
    13    8    9 2   
    14    8   13 1   
    15    9   10 1   
    16    9   15 1   
    17   10   11 2   
    18   10   12 1   
    19   12   13 1   
    20   12   28 1   
    21   13   14 2   
    22   15   16 1   
    23   15   29 1   
    24   15   34 1   
    25   16   17 ar  
    26   16   21 ar  
    27   17   18 ar  
    28   17   30 1   
    29   18   19 ar  
    30   18   23 1   
    31   19   20 ar  
    32   19   22 1   
    33   20   21 ar  
    34   20   31 1   
    35   21   32 1   
    36   22   33 1   
@<TRIPOS>SUBSTRUCTURE
     1 2RF         1 TEMP              0 ****  ****    0 ROOT
