@<TRIPOS>MOLECULE
2RF
   33    35     1     0     0
SMALL
bcc


@<TRIPOS>ATOM
      1 C01        -0.1800   -1.3300    0.7160 ca        1 2RF     -0.116000
      2 C02         1.1810   -1.1590    0.4760 ca        1 2RF     -0.106000
      3 C03         1.9140   -0.2000    1.1940 ca        1 2RF     -0.002800
      4 C04         1.2660    0.5610    2.1790 ca        1 2RF     -0.142000
      5 C05        -0.1010    0.3830    2.4050 ca        1 2RF      0.019400
      6 C06        -0.8340   -0.5560    1.6740 ca        1 2RF     -0.122000
      7 CL1        -0.8790    1.3210    3.5930 cl        1 2RF     -0.096400
      8 C08         3.3170   -0.0140    0.9230 cc        1 2RF     -0.249400
      9 C09         4.0450    1.1650    0.8530 cd        1 2RF      0.145800
     10 C10         5.5080    0.7880    0.5700 c         1 2RF      0.703700
     11 O11         6.4790    1.5350    0.4450 o         1 2RF     -0.566500
     12 N12         5.5400   -0.6090    0.4660 n         1 2RF     -0.623500
     13 C13         4.2400   -1.1590    0.6500 c         1 2RF      0.733700
     14 O14         4.0040   -2.3660    0.5730 o         1 2RF     -0.570500
     15 N15         3.5600    2.4320    0.9320 nh        1 2RF     -0.598400
     16 C16         4.3180    3.6150    1.0920 ca        1 2RF      0.081600
     17 C17         5.2600    4.0180    0.1290 ca        1 2RF     -0.057000
     18 C18         5.9340    5.2320    0.2750 ca        1 2RF     -0.059600
     19 C19         5.6740    6.0580    1.3820 ca        1 2RF      0.142100
     20 C20         4.7290    5.6590    2.3440 ca        1 2RF     -0.141000
     21 C21         4.0620    4.4540    2.2030 ca        1 2RF     -0.111000
     22 O22         6.2830    7.2660    1.6070 oh        1 2RF     -0.485100
     23 CL2         7.0700    5.6900   -0.9060 cl        1 2RF     -0.080400
     24 H011       -0.7450   -2.0830    0.1460 ha        1 2RF      0.142000
     25 H021        1.6980   -1.7890   -0.2670 ha        1 2RF      0.155000
     26 H041        1.8330    1.2690    2.8000 ha        1 2RF      0.138000
     27 H061       -1.9110   -0.6910    1.8580 ha        1 2RF      0.149000
     28 H121        6.3580   -1.1360    0.2920 hn        1 2RF      0.352500
     29 H151        2.5910    2.5150    1.1690 hn        1 2RF      0.453800
     30 H171        5.4900    3.3700   -0.7340 ha        1 2RF      0.169000
     31 H201        4.5360    6.3160    3.2050 ha        1 2RF      0.162000
     32 H211        3.3250    4.1570    2.9670 ha        1 2RF      0.144000
     33 H221        6.9280    7.4230    0.8990 ho        1 2RF      0.434000
@<TRIPOS>BOND
     1    1    2 ar  
     2    1    6 ar  
     3    1   24 1   
     4    2    3 ar  
     5    2   25 1   
     6    3    4 ar  
     7    3    8 1   
     8    4    5 ar  
     9    4   26 1   
    10    5    6 ar  
    11    5    7 1   
    12    6   27 1   
    13    8    9 2   
    14    8   13 1   
    15    9   10 1   
    16    9   15 1   
    17   10   11 2   
    18   10   12 1   
    19   12   13 1   
    20   12   28 1   
    21   13   14 2   
    22   15   16 1   
    23   15   29 1   
    24   16   17 ar  
    25   16   21 ar  
    26   17   18 ar  
    27   17   30 1   
    28   18   19 ar  
    29   18   23 1   
    30   19   20 ar  
    31   19   22 1   
    32   20   21 ar  
    33   20   31 1   
    34   21   32 1   
    35   22   33 1   
@<TRIPOS>SUBSTRUCTURE
     1 2RF         1 TEMP              0 ****  ****    0 ROOT
