@<TRIPOS>MOLECULE
2RF
   33    35     1     0     0
SMALL
bcc


@<TRIPOS>ATOM
      1 C01        -0.1650   -1.2820    0.6380 ca        1 2RF     -0.116000
      2 C02         1.2080   -1.1400    0.4590 ca        1 2RF     -0.106000
      3 C03         1.9240   -0.1780    1.1910 ca        1 2RF     -0.002800
      4 C04         1.2440    0.6150    2.1280 ca        1 2RF     -0.142000
      5 C05        -0.1350    0.4640    2.2930 ca        1 2RF      0.019400
      6 C06        -0.8490   -0.4780    1.5480 ca        1 2RF     -0.122000
      7 Cl1        -0.9510    1.4400    3.4240 cl        1 2RF     -0.096400
      8 C08         3.3420   -0.0210    0.9830 cc        1 2RF     -0.249400
      9 C09         4.0920    1.1450    0.9230 cd        1 2RF      0.145800
     10 C10         5.5600    0.7370    0.7180 c         1 2RF      0.703700
     11 O11         6.5490    1.4650    0.6240 o         1 2RF     -0.566500
     12 N12         5.5730   -0.6620    0.6440 ns        1 2RF     -0.623500
     13 C13         4.2550   -1.1870    0.7770 c         1 2RF      0.733700
     14 O14         4.0020   -2.3910    0.7140 o         1 2RF     -0.570500
     15 N15         3.6270    2.4200    0.9530 nu        1 2RF     -0.598400
     16 C16         4.3960    3.5940    1.1260 ca        1 2RF      0.081600
     17 C17         5.3900    3.9620    0.2010 ca        1 2RF     -0.057000
     18 C18         6.0790    5.1660    0.3560 ca        1 2RF     -0.059600
     19 C19         5.7800    6.0200    1.4320 ca        1 2RF      0.142100
     20 C20         4.7830    5.6560    2.3560 ca        1 2RF     -0.141000
     21 C21         4.1030    4.4590    2.2060 ca        1 2RF     -0.111000
     22 O22         6.3990    7.2210    1.6630 oh        1 2RF     -0.485100
     23 Cl2         7.2770    5.5820   -0.7780 cl        1 2RF     -0.080400
     24 H011       -0.7160   -2.0380    0.0580 ha        1 2RF      0.142000
     25 H021        1.7480   -1.7930   -0.2450 ha        1 2RF      0.155000
     26 H041        1.7940    1.3270    2.7610 ha        1 2RF      0.138000
     27 H061       -1.9350   -0.5900    1.6830 ha        1 2RF      0.149000
     28 H121        6.3880   -1.2060    0.5190 hn        1 2RF      0.352500
     29 H151        2.6490    2.5250    1.1420 hn        1 2RF      0.453800
     30 H171        5.6500    3.2920   -0.6360 ha        1 2RF      0.169000
     31 H201        4.5610    6.3340    3.1930 ha        1 2RF      0.162000
     32 H211        3.3260    4.1910    2.9400 ha        1 2RF      0.144000
     33 H221        7.0800    7.3540    0.9830 ho        1 2RF      0.434000
@<TRIPOS>BOND
     1    1    2 ar  
     2    1    6 ar  
     3    1   24 1   
     4    2    3 ar  
     5    2   25 1   
     6    3    4 ar  
     7    3    8 1   
     8    4    5 ar  
     9    4   26 1   
    10    5    6 ar  
    11    5    7 1   
    12    6   27 1   
    13    8    9 2   
    14    8   13 1   
    15    9   10 1   
    16    9   15 1   
    17   10   11 2   
    18   10   12 1   
    19   12   13 1   
    20   12   28 1   
    21   13   14 2   
    22   15   16 1   
    23   15   29 1   
    24   16   17 ar  
    25   16   21 ar  
    26   17   18 ar  
    27   17   30 1   
    28   18   19 ar  
    29   18   23 1   
    30   19   20 ar  
    31   19   22 1   
    32   20   21 ar  
    33   20   31 1   
    34   21   32 1   
    35   22   33 1   
@<TRIPOS>SUBSTRUCTURE
     1 2RF         1 TEMP              0 ****  ****    0 ROOT
