@<TRIPOS>MOLECULE
2RG
   58    60     1     0     0
SMALL
bcc


@<TRIPOS>ATOM
      1 C          -3.3780   -0.4770   -0.9280 c         1 2RG      0.647100
      2 N          -1.5490   -0.8980   -2.6200 n3        1 2RG     -0.792200
      3 O          -3.7370    0.5230   -1.5760 o         1 2RG     -0.590100
      4 CA         -2.1580   -1.3210   -1.3570 c3        1 2RG      0.084500
      5 CB         -1.0780   -1.3320   -0.2500 c3        1 2RG     -0.082400
      6 CD         -0.1000   -0.8540   -2.4350 c3        1 2RG      0.150800
      7 CG          0.2520   -1.1610   -0.9690 c3        1 2RG     -0.020600
      8 CAB         6.0920    1.1940    0.5030 c3        1 2RG     -0.193700
      9 CAD         4.6500    0.7480    0.7800 c3        1 2RG      0.098500
     10 CAE         6.8890    1.2020    1.8210 c3        1 2RG      0.142100
     11 CAF         8.3830    1.2960    1.5620 c3        1 2RG     -0.136100
     12 OAG         6.4710    2.2740    2.6540 oh        1 2RG     -0.595800
     13 CAH         3.6120    1.1470   -0.3230 c3        1 2RG     -0.084700
     14 CAI         2.8400   -0.1620   -0.5790 c3        1 2RG     -0.082900
     15 NAJ         4.5190   -0.6970    1.0180 n2        1 2RG     -0.601900
     16 SAK         1.1410    0.1580   -0.1780 ss        1 2RG     -0.311200
     17 CAL         3.5440   -1.1790    0.3100 ce        1 2RG      0.386300
     18 CAM         3.1340   -2.6560    0.1990 c         1 2RG      0.838300
     19 OAT         3.0650   -3.3510    1.2390 o         1 2RG     -0.804300
     20 OAU         2.8840   -3.0540   -0.9740 o         1 2RG     -0.804300
     21 NAX        -4.0440   -0.9490    0.1880 n         1 2RG     -0.467100
     22 CAY        -5.1750   -0.3660    0.8030 ca        1 2RG      0.023600
     23 CAZ        -6.2080    0.2450    0.0640 ca        1 2RG     -0.103000
     24 CBA        -7.3470    0.7280    0.7130 ca        1 2RG     -0.110600
     25 CBB        -7.4510    0.6260    2.1040 ca        1 2RG     -0.127000
     26 CBC        -6.4300    0.0360    2.8430 ca        1 2RG     -0.149000
     27 CBD        -5.2950   -0.4610    2.2090 ca        1 2RG     -0.197000
     28 CBE        -8.4950    1.3430   -0.0740 c         1 2RG      0.907200
     29 OBF        -8.5060    1.2110   -1.3300 o         1 2RG     -0.834800
     30 OBG        -9.3990    1.9460    0.5760 o         1 2RG     -0.834800
     31 HN         -1.9070    0.0020   -2.8930 hn        1 2RG      0.373800
     32 HA         -2.5250   -2.3760   -1.5330 h1        1 2RG      0.075700
     33 HB         -1.2430   -0.4990    0.4810 hc        1 2RG      0.063200
     34 HBA        -1.1050   -2.2960    0.3120 hc        1 2RG      0.063200
     35 HD          0.3420   -1.6480   -3.1000 h1        1 2RG      0.050700
     36 HDA         0.3290    0.1370   -2.7440 h1        1 2RG      0.050700
     37 HG          0.8780   -2.0950   -0.9170 h1        1 2RG      0.145700
     38 HAB         6.0590    2.2480    0.1090 hc        1 2RG      0.059700
     39 HAD         4.3480    1.2680    1.7390 h1        1 2RG      0.071700
     40 HAE         6.6480    0.2810    2.4270 h1        1 2RG      0.110700
     41 HAF         8.6090    2.1240    0.8490 hc        1 2RG      0.040700
     42 HAFA        8.9210    1.4880    2.5210 hc        1 2RG      0.040700
     43 HAFB        8.7540    0.3390    1.1230 hc        1 2RG      0.040700
     44 HOAG        6.5660    3.0870    2.1460 ho        1 2RG      0.388000
     45 HAH         2.9170    1.9140    0.1200 hc        1 2RG      0.063700
     46 HAI         2.9120   -0.5160   -1.6370 h1        1 2RG      0.103700
     47 HNAX       -3.5760   -1.6410    0.7280 hn        1 2RG      0.304500
     48 HAZ        -6.1380    0.3570   -1.0320 ha        1 2RG      0.176000
     49 HBB        -8.3540    1.0260    2.5910 ha        1 2RG      0.147000
     50 HBC        -6.5120   -0.0400    3.9360 ha        1 2RG      0.101000
     51 HBD        -4.5020   -0.9280    2.8090 ha        1 2RG      0.106000
     52 CAA         6.8050    0.3220   -0.4980 c         1 2RG      0.586900
     53 OAC         7.4730    0.8000   -1.4210 o         1 2RG     -0.573100
     54 HAA         6.7130   -0.7770   -0.3570 h4        1 2RG      0.036200
     55 CAS         4.1870    1.7050   -1.5960 c3        1 2RG     -0.083100
     56 HAS         4.9720    1.0290   -2.0150 hc        1 2RG      0.033033
     57 HASA        3.3780    1.8180   -2.3590 hc        1 2RG      0.033033
     58 HASB        4.6410    2.7110   -1.4210 hc        1 2RG      0.033033
@<TRIPOS>BOND
     1    1    3 2   
     2    1    4 1   
     3    1   21 1   
     4    2    4 1   
     5    2    6 1   
     6    2   31 1   
     7    4    5 1   
     8    4   32 1   
     9    5    7 1   
    10    5   33 1   
    11    5   34 1   
    12    6    7 1   
    13    6   35 1   
    14    6   36 1   
    15    7   16 1   
    16    7   37 1   
    17    8    9 1   
    18    8   10 1   
    19    8   38 1   
    20    8   52 1   
    21    9   13 1   
    22    9   15 1   
    23    9   39 1   
    24   10   11 1   
    25   10   12 1   
    26   10   40 1   
    27   11   41 1   
    28   11   42 1   
    29   11   43 1   
    30   12   44 1   
    31   13   14 1   
    32   13   45 1   
    33   13   55 1   
    34   14   16 1   
    35   14   17 1   
    36   14   46 1   
    37   15   17 2   
    38   17   18 1   
    39   18   19 1   
    40   18   20 1   
    41   21   22 1   
    42   21   47 1   
    43   22   23 ar  
    44   22   27 ar  
    45   23   24 ar  
    46   23   48 1   
    47   24   25 ar  
    48   24   28 1   
    49   25   26 ar  
    50   25   49 1   
    51   26   27 ar  
    52   26   50 1   
    53   27   51 1   
    54   28   29 1   
    55   28   30 1   
    56   52   53 2   
    57   52   54 1   
    58   55   56 1   
    59   55   57 1   
    60   55   58 1   
@<TRIPOS>SUBSTRUCTURE
     1 2RG         1 TEMP              0 ****  ****    0 ROOT
