@<TRIPOS>MOLECULE
2RG
   59    52     1     0     0
SMALL
bcc


@<TRIPOS>ATOM
      1 C           2.1010   -2.2510    0.0310 c         1 2RG      0.670300
      2 N           3.8040   -4.2120   -0.3630 n1        1 2RG     -0.335800
      3 O           2.4330   -1.3190    0.7880 o         1 2RG     -0.579100
      4 CA          3.0350   -3.3560   -0.2050 cg        1 2RG      0.192600
      5 CB          1.1510   -0.1350    3.8270 c3        1 2RG     -0.119800
      6 CD          1.3900    2.5770    1.4010 c3        1 2RG     -0.097900
      7 CG          2.7220    2.0460    1.0610 c2        1 2RG     -0.062200
      8 CAB         8.3220    1.4050    4.3620 ce        1 2RG     -0.346400
      9 CAD         4.4740    4.3430    5.9880 c2        1 2RG     -0.380100
     10 CAE         8.3280    0.1680    3.8120 c2        1 2RG      0.108100
     11 CAF         8.1560    1.6350    5.8140 c3        1 2RG     -0.049900
     12 OAG         8.1980   -1.0000    4.4970 oh        1 2RG     -0.493100
     13 CAH         3.6510    3.3230    5.9710 c1        1 2RG      0.119000
     14 CAI         3.8150    2.8160    0.9500 ce        1 2RG     -0.135700
     15 NAJ         6.1520    1.9010    0.3500 n1        1 2RG     -0.458800
     16 SAK         2.7480    2.2020    5.9420 s         1 2RG     -0.059900
     17 CAL         5.0920    2.3030    0.6190 cg        1 2RG      0.245500
     18 CAM         8.6110    0.8720   -0.5360 c1        1 2RG      0.910000
     19 OAT         8.9650    0.7670    0.5980 o         1 2RG     -0.455500
     20 OAU         8.3030    0.9640   -1.6790 o         1 2RG     -0.455500
     21 NAX         0.9060   -2.3530   -0.6370 n         1 2RG     -0.441100
     22 CAY        -0.1680   -1.4530   -0.5700 c2        1 2RG     -0.108400
     23 CAZ        -0.3010   -0.4000    0.2660 ce        1 2RG     -0.116000
     24 CBA        -1.4230    0.5000    0.2860 ce        1 2RG     -0.165000
     25 CBB        -2.6330    0.3980   -0.3050 cf        1 2RG     -0.010900
     26 CBC        -3.0750   -0.6940   -1.0690 ch        1 2RG     -0.088300
     27 CBD        -3.4910   -1.6150   -1.7180 c1        1 2RG     -0.229500
     28 CBE        -3.6250    1.5710   -0.1330 c         1 2RG      0.913800
     29 OBF        -3.5520    2.2150    0.9490 o         1 2RG     -0.809800
     30 OBG        -4.4110    1.8230   -1.0810 o         1 2RG     -0.809800
     31 HN          1.4080    3.6720    1.6190 hc        1 2RG      0.067033
     32 HA          1.0920   -1.0630    4.4360 hc        1 2RG      0.030950
     33 HB          2.7660    0.9500    0.9010 ha        1 2RG      0.160000
     34 HBA         1.7670   -0.3240    2.9190 hc        1 2RG      0.030950
     35 HD          0.6810    2.3930    0.5500 hc        1 2RG      0.067033
     36 HDA         0.9870    2.0350    2.2970 hc        1 2RG      0.067033
     37 HG          1.6190    0.6760    4.4340 hc        1 2RG      0.030950
     38 HAB         5.0390    4.6600    5.0980 ha        1 2RG      0.157000
     39 HAD         4.6490    4.9440    6.8900 ha        1 2RG      0.157000
     40 HAE         8.4480   -0.0400    2.7300 h4        1 2RG      0.189000
     41 HAF         8.2020    2.7290    6.0440 hc        1 2RG      0.044367
     42 HAFA        7.1690    1.2440    6.1680 hc        1 2RG      0.044367
     43 HAFB        8.9650    1.1210    6.3930 hc        1 2RG      0.044367
     44 HOAG        8.0440   -0.8110    5.4360 ho        1 2RG      0.423000
     45 HAH         6.7570    5.2840    3.3790 hc        1 2RG      0.030950
     46 HAI         3.7840    3.9080    1.1120 ha        1 2RG      0.149000
     47 HNAX        0.7650   -3.1470   -1.2200 hn        1 2RG      0.322500
     48 HAZ         0.4940   -0.1580    1.0000 ha        1 2RG      0.136000
     49 HBB        -1.2660    1.4070    0.9080 ha        1 2RG      0.152000
     50 HBC        -3.8880   -2.4070   -2.2930 ha        1 2RG      0.146500
     51 HBD        -0.9530   -1.7010   -1.3140 h4        1 2RG      0.163000
     52 CAS         5.9250    5.9150    2.9920 c3        1 2RG     -0.119800
     53 HAS         5.5590    6.5850    3.8000 hc        1 2RG      0.030950
     54 HASA        5.0930    5.2630    2.6460 hc        1 2RG      0.030950
     55 HASB        6.2920    6.5290    2.1410 hc        1 2RG      0.030950
     56 HAX2        0.1270    0.1750    3.5220 hc        1 2RG      0.030950
     57 CAA         8.4750    2.5690    3.4830 c         1 2RG      0.586100
     58 OAC         8.5070    3.7360    3.8890 o         1 2RG     -0.559100
     59 HAA         8.5650    2.3340    2.3950 h4        1 2RG      0.010200
@<TRIPOS>BOND
     1    1    3 2   
     2    1    4 1   
     3    1   21 1   
     4    2    4 3   
     5    5   32 1   
     6    5   34 1   
     7    5   37 1   
     8    5   56 1   
     9    6    7 1   
    10    6   31 1   
    11    6   35 1   
    12    6   36 1   
    13    7   14 2   
    14    7   33 1   
    15    8   10 2   
    16    8   11 1   
    17    8   57 1   
    18    9   13 2   
    19    9   38 1   
    20    9   39 1   
    21   10   12 1   
    22   10   40 1   
    23   11   41 1   
    24   11   42 1   
    25   11   43 1   
    26   12   44 1   
    27   13   16 2   
    28   14   17 1   
    29   14   46 1   
    30   15   17 3   
    31   18   19 2   
    32   18   20 2   
    33   21   22 1   
    34   21   47 1   
    35   22   23 2   
    36   22   51 1   
    37   23   24 1   
    38   23   48 1   
    39   24   25 2   
    40   24   49 1   
    41   25   26 1   
    42   25   28 1   
    43   26   27 3   
    44   27   50 1   
    45   28   29 1   
    46   28   30 1   
    47   45   52 1   
    48   52   53 1   
    49   52   54 1   
    50   52   55 1   
    51   57   58 2   
    52   57   59 1   
@<TRIPOS>SUBSTRUCTURE
     1 2RG         1 TEMP              0 ****  ****    0 ROOT
