@<TRIPOS>MOLECULE
2RG
   58    55     1     0     0
SMALL
bcc


@<TRIPOS>ATOM
      1 C          -1.1160    0.4520    0.4590 c2        1 2RG      0.272000
      2 N           1.3040    0.3750    0.9370 n3        1 2RG     -0.221000
      3 O          -1.8420    0.8870    1.3790 o         1 2RG     -0.402000
      4 CA          0.3030    0.8810    0.3180 c1        1 2RG     -0.206000
      5 CB          2.2600   -2.0720    3.2100 c3        1 2RG     -0.279000
      6 CD          3.9150    1.0530    0.8840 c1        1 2RG     -0.167000
      7 CG          4.6120    1.7750    0.0030 c2        1 2RG     -0.553000
      8 CAB         8.8090    5.2550    5.4220 c3        1 2RG     -0.275000
      9 CAD         5.9100    3.7830    4.2100 c1        1 2RG     -0.225000
     10 CAE         8.9760    3.9090    6.1280 c3        1 2RG      0.047000
     11 CAF        10.0590    3.9650    7.1900 c3        1 2RG     -0.213000
     12 OAG         7.7720    3.5570    6.7880 oh        1 2RG     -0.341000
     13 CAH         8.3250    2.4430    1.3540 c2        1 2RG     -0.215000
     14 CAI         7.0000    2.2090    1.2640 c2        1 2RG     -0.212000
     15 NAJ         5.9530    2.9570    3.3180 n2        1 2RG      0.008000
     16 SAK         6.2570    2.0860   -0.2410 ss        1 2RG      0.283000
     17 CAL         6.1570    2.0240    2.4530 c2        1 2RG     -0.100000
     18 CAM         5.5220    0.6750    2.6310 c2        1 2RG      0.316000
     19 OAT         5.9280   -0.1940    3.4050 o         1 2RG     -0.335000
     20 OAU         4.3480    0.4020    1.9880 os        1 2RG     -0.163000
     21 NAX        -1.6070   -0.3420   -0.5790 n         1 2RG     -0.321000
     22 CAY        -2.9330   -0.6730   -0.8490 c2        1 2RG     -0.049000
     23 CAZ        -4.0260   -0.4180   -0.0940 c2        1 2RG     -0.192000
     24 CBA        -5.3700   -0.8100   -0.4380 c2        1 2RG     -0.100000
     25 CBB        -5.8160   -1.7280   -1.3220 c2        1 2RG     -0.087000
     26 CBC        -4.9940   -2.5620   -2.0990 c1        1 2RG     -0.023000
     27 CBD        -4.3160   -3.2960   -2.7640 c1        1 2RG     -0.329000
     28 CBE        -7.3310   -1.8990   -1.5070 c2        1 2RG      0.365000
     29 OBF        -7.7690   -2.2460   -2.6390 o         1 2RG     -0.570000
     30 OBG        -8.0710   -1.6620   -0.5100 o         1 2RG     -0.570000
     31 HN          1.2300   -0.3930    1.5790 hn        1 2RG      0.236500
     32 HA          3.0210   -1.3340    2.8620 hc        1 2RG      0.070250
     33 HB          2.7290   -2.7750    3.9320 hc        1 2RG      0.070250
     34 HBA         1.4220   -1.5360    3.7060 hc        1 2RG      0.070250
     35 HD          2.3120    0.7500    0.8240 hn        1 2RG      0.236500
     36 HDA         4.0360    2.2250   -0.8220 h4        1 2RG      0.155000
     37 HG          1.8690   -2.6420    2.3390 hc        1 2RG      0.070250
     38 HAB         7.9420    5.1750    4.7060 hc        1 2RG      0.124500
     39 HAD         5.2170    4.5990    4.4070 ha        1 2RG      0.183000
     40 HAE         9.2290    3.1200    5.3600 h1        1 2RG      0.079000
     41 HAF        11.0270    4.2630    6.7220 hc        1 2RG      0.079333
     42 HAFA        9.7900    4.7070    7.9800 hc        1 2RG      0.079333
     43 HAFB       10.1710    2.9640    7.6700 hc        1 2RG      0.079333
     44 HOAG        7.0970    3.4420    6.0980 ho        1 2RG      0.235000
     45 HAH         8.5570    6.0460    6.1730 hc        1 2RG      0.124500
     46 HAI         8.7100    1.7800    3.3610 hc        1 2RG      0.069333
     47 HNAX       -0.9750   -0.5080   -1.3290 hn        1 2RG      0.215000
     48 HAZ        -3.9300    0.1480    0.8500 ha        1 2RG      0.146000
     49 HBB        -6.1550   -0.2740    0.1370 ha        1 2RG      0.142000
     50 HBC        -3.7360   -3.9490   -3.3550 ha        1 2RG      0.195000
     51 HBD        -3.0350   -1.2320   -1.8040 h4        1 2RG      0.136000
     52 CAA        10.0280    5.6270    4.6440 c2        1 2RG      0.191000
     53 OAC        10.5060    6.7640    4.6340 o         1 2RG     -0.310000
     54 HAA        10.4860    4.8040    4.0480 h4        1 2RG      0.089000
     55 CAS         9.0790    2.5300    2.6160 c3        1 2RG     -0.168000
     56 HAS         8.9650    3.5490    3.0710 hc        1 2RG      0.069333
     57 HASA        8.9150    2.5680    0.4310 ha        1 2RG      0.122000
     58 HASB       10.1680    2.3490    2.4400 hc        1 2RG      0.069333
@<TRIPOS>BOND
     1    1    3 1   
     2    1    4 1   
     3    1   21 1   
     4    2    4 1   
     5    2   31 1   
     6    2   35 1   
     7    5   32 1   
     8    5   33 1   
     9    5   34 1   
    10    5   37 1   
    11    6    7 1   
    12    6   20 1   
    13    7   16 1   
    14    7   36 1   
    15    8   10 1   
    16    8   38 1   
    17    8   45 1   
    18    8   52 1   
    19    9   15 1   
    20    9   39 1   
    21   10   11 1   
    22   10   12 1   
    23   10   40 1   
    24   11   41 1   
    25   11   42 1   
    26   11   43 1   
    27   12   44 1   
    28   13   14 1   
    29   13   55 1   
    30   13   57 1   
    31   14   16 1   
    32   14   17 1   
    33   15   17 1   
    34   17   18 1   
    35   18   19 1   
    36   18   20 1   
    37   21   22 1   
    38   21   47 1   
    39   22   23 1   
    40   22   51 1   
    41   23   24 1   
    42   23   48 1   
    43   24   25 1   
    44   24   49 1   
    45   25   26 1   
    46   25   28 1   
    47   26   27 1   
    48   27   50 1   
    49   28   29 1   
    50   28   30 1   
    51   46   55 1   
    52   52   53 1   
    53   52   54 1   
    54   55   56 1   
    55   55   58 1   
@<TRIPOS>SUBSTRUCTURE
     1 2RG         1 TEMP              0 ****  ****    0 ROOT
