@<TRIPOS>MOLECULE
2RG
   58    56     1     0     0
SMALL
bcc


@<TRIPOS>ATOM
      1 C          -2.8470   -1.7310   -2.4570 c1        1 2RG      0.296000
      2 N          -1.1440   -0.2860   -2.8200 n3        1 2RG     -0.269000
      3 O          -3.4890   -1.6990   -1.4160 o         1 2RG     -0.374000
      4 CA         -1.4420   -1.5440   -2.4270 c2        1 2RG     -0.070000
      5 CB         -0.9060   -1.5760   -0.8340 c3        1 2RG     -0.157000
      6 CD          0.0780    0.1670   -1.9320 c3        1 2RG     -0.090000
      7 CG          0.1990   -0.8730   -0.7880 c3        1 2RG     -0.245000
      8 CAA         5.2530    0.4770    3.5440 c1        1 2RG      0.223000
      9 CAB         4.4520    1.7730    3.4460 c2        1 2RG     -0.193000
     10 OAC         4.9430   -0.3600    4.3470 o         1 2RG     -0.332000
     11 CAD         3.0120    1.4560    3.3830 c3        1 2RG     -0.062000
     12 CAE         4.7300    2.6380    4.6750 c3        1 2RG      0.037000
     13 CAF         6.1510    3.1110    4.6400 c3        1 2RG     -0.212000
     14 OAG         3.8570    3.7540    4.6730 oh        1 2RG     -0.342000
     15 CAH         2.4340    1.7990    1.9160 c3        1 2RG     -0.122000
     16 CAI         2.1470    0.3350    1.2440 c3        1 2RG     -0.231000
     17 NAJ         2.8420    0.1700    3.4110 n2        1 2RG     -0.189000
     18 SAK         0.3410    0.0010    0.8650 ss        1 2RG      0.048000
     19 CAL         2.6480   -0.4390    2.1310 c2        1 2RG     -0.041000
     20 CAM         2.4240   -1.9270    2.0360 c2        1 2RG      0.378000
     21 CAS         3.3420    2.4810    1.1940 c3        1 2RG     -0.210000
     22 OAT         1.4140   -2.4480    2.5830 o         1 2RG     -0.537000
     23 OAU         3.2010   -2.6340    1.3550 o         1 2RG     -0.537000
     24 NAX        -3.5300   -1.9110   -3.7270 n3        1 2RG     -0.312000
     25 CAY        -4.9660   -2.0500   -3.7550 c2        1 2RG      0.032000
     26 CAZ        -5.7220   -1.2820   -4.6360 c2        1 2RG     -0.151000
     27 CBA        -7.1150   -1.3350   -4.5900 c1        1 2RG     -0.089000
     28 CBB        -7.7440   -2.1490   -3.6700 c2        1 2RG     -0.128000
     29 CBC        -6.9840   -2.9200   -2.7850 c1        1 2RG     -0.150000
     30 CBD        -5.5960   -2.8660   -2.8330 c1        1 2RG     -0.171000
     31 CBE        -7.9430   -0.5220   -5.5770 c1        1 2RG      0.356000
     32 OBF        -8.2620   -1.0220   -6.6890 o         1 2RG     -0.571500
     33 OBG        -8.4400    0.5830   -5.2190 o         1 2RG     -0.571500
     34 HN         -1.8510    0.2580   -2.6620 hn        1 2RG      0.145000
     35 HA         -1.1470   -2.2760   -3.0120 h4        1 2RG      0.114000
     36 HB         -0.7270   -2.4950   -0.5610 hc        1 2RG      0.115000
     37 HBA        -1.5830   -1.1750   -0.2440 hc        1 2RG      0.115000
     38 HD          0.8860    0.1750   -2.4600 h1        1 2RG      0.097500
     39 HDA        -0.0880    1.0570   -1.5610 h1        1 2RG      0.097500
     40 HG          0.9650   -1.4440   -0.9330 h1        1 2RG      0.183000
     41 HAA         6.0020    0.3160    2.9310 ha        1 2RG      0.117000
     42 HAB         4.7110    2.2510    2.6530 ha        1 2RG      0.116000
     43 HAD         2.6730    1.9710    4.1320 h1        1 2RG      0.091000
     44 HAE         4.5830    2.1110    5.4820 h1        1 2RG      0.087000
     45 HAF         6.7570    2.3310    4.6180 hc        1 2RG      0.080000
     46 HAFA        6.3390    3.6540    5.4470 hc        1 2RG      0.080000
     47 HAFB        6.2950    3.6630    3.8310 hc        1 2RG      0.080000
     48 HOAG        3.5110    3.8610    5.4850 ho        1 2RG      0.209000
     49 HAH         1.6080    2.3050    1.9870 hc        1 2RG      0.096000
     50 HAI         2.5690    0.2320    0.3630 h1        1 2RG      0.145000
     51 HAS         3.5060    3.3490    1.6110 hc        1 2RG      0.077333
     52 HASA        3.0010    2.6150    0.2800 hc        1 2RG      0.077333
     53 HASB        4.1810    1.9710    1.1580 hc        1 2RG      0.077333
     54 HNAX       -3.0480   -2.0560   -4.4800 hn        1 2RG      0.237000
     55 HAZ        -5.2670   -0.6920   -5.3030 ha        1 2RG      0.152000
     56 HBB        -8.7270   -2.2430   -3.6860 ha        1 2RG      0.146000
     57 HBC        -7.4250   -3.5050   -2.1460 ha        1 2RG      0.104000
     58 HBD        -5.0640   -3.4050   -2.2150 ha        1 2RG      0.149000
@<TRIPOS>BOND
     1    1    3 1   
     2    1   24 1   
     3    2    4 1   
     4    2    6 1   
     5    2   34 1   
     6    4    5 1   
     7    4   35 1   
     8    5    7 1   
     9    5   36 1   
    10    5   37 1   
    11    6    7 1   
    12    6   38 1   
    13    6   39 1   
    14    7   18 1   
    15    7   40 1   
    16    8   10 1   
    17    8   41 1   
    18    9   11 1   
    19    9   12 1   
    20    9   42 1   
    21   11   15 1   
    22   11   17 1   
    23   11   43 1   
    24   12   13 1   
    25   12   14 1   
    26   12   44 1   
    27   13   45 1   
    28   13   46 1   
    29   13   47 1   
    30   14   48 1   
    31   15   16 1   
    32   15   21 1   
    33   15   49 1   
    34   16   18 1   
    35   16   19 1   
    36   16   50 1   
    37   17   19 1   
    38   19   20 1   
    39   20   22 1   
    40   20   23 1   
    41   21   51 1   
    42   21   52 1   
    43   21   53 1   
    44   24   25 1   
    45   24   54 1   
    46   25   26 1   
    47   25   30 1   
    48   26   27 1   
    49   26   55 1   
    50   27   28 1   
    51   28   29 1   
    52   28   56 1   
    53   29   57 1   
    54   30   58 1   
    55   31   32 1   
    56   31   33 1   
@<TRIPOS>SUBSTRUCTURE
     1 2RG         1 TEMP              0 ****  ****    0 ROOT
