@<TRIPOS>MOLECULE
2RG
   58    80     1     0     0
SMALL
bcc


@<TRIPOS>ATOM
      1 C           0.0000    0.0000    0.0000 c3        1 2RG      0.250000
      2 N           2.0320    1.2710   -0.5610 ny        1 2RG      0.191000
      3 O          -0.6060    1.0470   -0.0910 o         1 2RG     -0.373000
      4 CA          1.5070    0.0000    0.0000 DU        1 2RG     -0.197000
      5 CB          2.0540    0.0000    1.4500 DU        1 2RG      0.382000
      6 CD          3.4050    1.4100   -0.0300 DU        1 2RG      0.195000
      7 CG          3.4630    0.6160    1.2890 DU        1 2RG      0.303000
      8 CAB         7.9380    3.1960    4.9260 DU        1 2RG     -0.554000
      9 CAD         6.7110    2.4610    4.3830 DU        1 2RG     -0.335000
     10 CAE         8.6020    2.3480    6.0130 DU        1 2RG      0.416000
     11 CAF         9.8290    3.0840    6.5560 c3        1 2RG      0.156000
     12 OAG         7.6720    2.1240    7.0760 oh        1 2RG     -0.357000
     13 CAH         5.9690    3.3440    3.3520 DU        1 2RG     -0.148000
     14 CAI         5.5210    2.2750    2.3250 c3        1 2RG     -0.132000
     15 NAJ         7.1220    1.2660    3.6360 n2        1 2RG     -0.121000
     16 SAK         3.8270    1.7260    2.6760 ss        1 2RG      0.033000
     17 CAL         6.5000    1.1420    2.5330 c2        1 2RG     -0.104000
     18 CAM         6.7080    0.0300    1.5750 c2        1 2RG      0.426000
     19 OAT         7.6060   -0.9350    1.8490 o         1 2RG     -0.565000
     20 OAU         6.0700   -0.0110    0.5440 o         1 2RG     -0.565000
     21 NAX        -0.6740   -1.1620    0.1080 n7        1 2RG      0.036000
     22 CAY        -2.0700   -1.1540    0.2130 c2        1 2RG      0.013000
     23 CAZ        -2.8110   -0.2070   -0.4750 c2        1 2RG     -0.289000
     24 CBA        -4.2020   -0.2040   -0.3660 c3        1 2RG      0.073000
     25 CBB        -4.8370   -1.1550    0.4340 c2        1 2RG     -0.163000
     26 CBC        -4.0900   -2.0940    1.1160 c2        1 2RG     -0.186000
     27 CBD        -2.7120   -2.1010    1.0040 c2        1 2RG      0.129000
     28 CBE        -5.0000    0.8020   -1.0960 c2        1 2RG      0.413000
     29 OBF        -4.4460    1.6300   -1.7920 o         1 2RG     -0.584500
     30 OBG        -6.3430    0.8030   -0.9900 o         1 2RG     -0.584500
     31 HN          2.7800    1.5170    0.0570 DU        1 2RG      0.146000
     32 HA          2.3730    0.3940    0.5180 DU        1 2RG     -0.319000
     33 HB          2.8480    0.7170    1.6230 DU        1 2RG     -0.108000
     34 HBA         2.0580    0.4030    0.4440 DU        1 2RG     -0.319000
     35 HD          2.8150    0.5250   -0.2350 DU        1 2RG      0.146000
     36 HDA         2.6940    1.1260    0.7360 DU        1 2RG     -0.261000
     37 HG          2.7970   -0.1940    1.5600 DU        1 2RG     -0.108000
     38 HAB         7.2160    3.0730    4.1280 DU        1 2RG     -0.081000
     39 HAD         6.2370    2.1940    3.4460 DU        1 2RG      0.402000
     40 HAE         7.9190    1.9570    5.2690 DU        1 2RG      0.331000
     41 HAF         8.9440    3.5010    6.0900 DU        1 2RG     -0.258500
     42 HAFA        8.8340    2.8480    6.1990 DU        1 2RG     -0.258500
     43 HAFB        9.3660    2.2330    6.0710 hc        1 2RG      0.058000
     44 HOAG        8.3160    2.7970    6.9300 ho        1 2RG      0.255000
     45 HAH         6.9200    3.2620    3.8630 DU        1 2RG      0.358000
     46 HAI         6.2330    2.3400    3.1390 DU        1 2RG     -0.147000
     47 HNAX        0.0650   -0.9460    0.7480 DU        1 2RG      0.143000
     48 HAZ        -1.9410    0.2360   -0.0050 ha        1 2RG      0.251000
     49 HBB        -3.8230   -0.7840    0.5200 DU        1 2RG      0.181000
     50 HBC        -3.0380   -2.0770    0.8560 ha        1 2RG     -0.253000
     51 HBD        -2.5840   -1.2600    0.3330 ha        1 2RG     -0.050000
     52 CAA         8.9190    3.4340    3.8060 c2        1 2RG      0.193000
     53 OAC         9.3390    4.5460    3.5970 o         1 2RG     -0.235000
     54 HAA         7.9920    2.9070    3.6160 h4        1 2RG      0.182000
     55 CAS         6.9160    4.3610    2.7120 c3        1 2RG     -0.265000
     56 HAS         6.6510    5.0370    1.9080 hc        1 2RG      0.086667
     57 HASA        7.4210    5.1630    3.2380 hc        1 2RG      0.086667
     58 HASB        7.8360    4.1060    2.2010 hc        1 2RG      0.086667
@<TRIPOS>BOND
     1    1    3 1   
     2    1    4 1   
     3    1   21 1   
     4    1   47 1   
     5    2    4 1   
     6    2    6 1   
     7    2   31 1   
     8    2   35 1   
     9    4    5 1   
    10    4   32 1   
    11    4   34 1   
    12    5    7 1   
    13    5   32 1   
    14    5   33 1   
    15    5   34 1   
    16    5   37 1   
    17    6    7 1   
    18    6   31 1   
    19    6   35 1   
    20    6   36 1   
    21    7   16 1   
    22    7   33 1   
    23    7   36 1   
    24    7   37 1   
    25    8    9 1   
    26    8   10 1   
    27    8   38 1   
    28    8   40 1   
    29    8   52 1   
    30    9   13 1   
    31    9   15 1   
    32    9   38 1   
    33    9   39 1   
    34    9   45 1   
    35   10   11 1   
    36   10   12 1   
    37   10   40 1   
    38   10   41 1   
    39   10   42 1   
    40   11   41 1   
    41   11   42 1   
    42   11   43 1   
    43   12   44 1   
    44   13   14 1   
    45   13   39 1   
    46   13   45 1   
    47   13   46 1   
    48   13   55 1   
    49   14   16 1   
    50   14   17 1   
    51   14   46 1   
    52   15   17 1   
    53   17   18 1   
    54   18   19 1   
    55   18   20 1   
    56   21   22 1   
    57   21   47 1   
    58   22   23 1   
    59   22   27 1   
    60   23   24 1   
    61   23   48 1   
    62   24   25 1   
    63   24   28 1   
    64   24   49 1   
    65   25   26 1   
    66   25   49 1   
    67   26   27 1   
    68   26   50 1   
    69   27   51 1   
    70   28   29 1   
    71   28   30 1   
    72   32   34 1   
    73   38   45 1   
    74   39   46 1   
    75   41   42 1   
    76   52   53 1   
    77   52   54 1   
    78   55   56 1   
    79   55   57 1   
    80   55   58 1   
@<TRIPOS>SUBSTRUCTURE
     1 2RG         1 TEMP              0 ****  ****    0 ROOT
