@<TRIPOS>MOLECULE
2RH
   20    19     1     0     0
SMALL
bcc


@<TRIPOS>ATOM
      1 C1          1.5750   -0.0260   -0.1380 c3        1 2RH      0.014100
      2 O1         -0.5710   -1.0310   -0.5260 o         1 2RH     -0.837800
      3 C2          2.0510    0.0930    1.3050 c3        1 2RH     -0.079400
      4 O2         -0.5440    1.1160    0.1150 o         1 2RH     -0.837800
      5 C3          0.0250    0.0320   -0.1830 c         1 2RH      0.892600
      6 O3          2.0720   -1.2240   -0.7140 oh        1 2RH     -0.649800
      7 C4          3.5580    0.2710    1.4170 c3        1 2RH     -0.071700
      8 C5          3.9680    1.6980    1.1190 c3        1 2RH     -0.082600
      9 C6          4.0410   -0.1320    2.7950 c3        1 2RH     -0.082600
     10 H1          1.9970    0.8120   -0.7570 h1        1 2RH      0.036700
     11 H2          1.7480   -0.8360    1.8550 hc        1 2RH      0.045200
     12 H2A         1.5210    0.9620    1.7740 hc        1 2RH      0.045200
     13 HO3         1.3180   -1.8300   -0.7930 ho        1 2RH      0.423000
     14 H4          4.0400   -0.4080    0.6550 hc        1 2RH      0.057700
     15 H5          3.6090    1.9990    0.1060 hc        1 2RH      0.020867
     16 H5A         3.5260    2.3970    1.8700 hc        1 2RH      0.020867
     17 H5B         5.0790    1.8010    1.1510 hc        1 2RH      0.020867
     18 H6          3.8140   -1.2080    2.9870 hc        1 2RH      0.020867
     19 H6A         3.5360    0.4800    3.5800 hc        1 2RH      0.020867
     20 H6B         5.1440    0.0190    2.8840 hc        1 2RH      0.020867
@<TRIPOS>BOND
     1    1    3 1   
     2    1    5 1   
     3    1    6 1   
     4    1   10 1   
     5    2    5 1   
     6    3    7 1   
     7    3   11 1   
     8    3   12 1   
     9    4    5 1   
    10    6   13 1   
    11    7    8 1   
    12    7    9 1   
    13    7   14 1   
    14    8   15 1   
    15    8   16 1   
    16    8   17 1   
    17    9   18 1   
    18    9   19 1   
    19    9   20 1   
@<TRIPOS>SUBSTRUCTURE
     1 2RH         1 TEMP              0 ****  ****    0 ROOT
