@<TRIPOS>MOLECULE
2RH
   20    19     1     0     0
SMALL
bcc


@<TRIPOS>ATOM
      1 C1         -1.0280   -0.2680   -1.1520 c3        1 2RH      0.014100
      2 O1         -3.1690    0.7740   -1.4750 o         1 2RH     -0.837800
      3 C2         -0.5240   -0.2680    0.2730 c3        1 2RH     -0.079400
      4 O2         -3.1690   -1.3090   -0.8290 o         1 2RH     -0.837800
      5 C3         -2.5400   -0.2680   -1.1520 c         1 2RH      0.892600
      6 O3         -0.5590   -1.4170   -1.8160 oh        1 2RH     -0.649800
      7 C4          0.8890    0.2710    0.3080 c3        1 2RH     -0.071700
      8 C5          0.9120    1.5790    1.0680 c3        1 2RH     -0.082600
      9 C6          1.7930   -0.7280    0.9980 c3        1 2RH     -0.082600
     10 H1         -0.7030    0.5290   -1.6120 h1        1 2RH      0.036700
     11 H2         -1.1010    0.2960    0.8230 hc        1 2RH      0.045200
     12 H2A        -0.5330   -1.1800    0.6210 hc        1 2RH      0.045200
     13 HO3        -0.1820   -1.1820   -2.5840 ho        1 2RH      0.423000
     14 H4          1.2040    0.4190   -0.6040 hc        1 2RH      0.057700
     15 H5          1.6800    2.1090    0.7810 hc        1 2RH      0.020867
     16 H5A         0.0890    2.0740    0.8890 hc        1 2RH      0.020867
     17 H5B         0.9810    1.3990    2.0250 hc        1 2RH      0.020867
     18 H6          2.1610   -1.3440    0.3360 hc        1 2RH      0.020867
     19 H6A         2.5210   -0.2550    1.4430 hc        1 2RH      0.020867
     20 H6B         1.2790   -1.2300    1.6580 hc        1 2RH      0.020867
@<TRIPOS>BOND
     1    1    3 1   
     2    1    5 1   
     3    1    6 1   
     4    1   10 1   
     5    2    5 1   
     6    3    7 1   
     7    3   11 1   
     8    3   12 1   
     9    4    5 1   
    10    6   13 1   
    11    7    8 1   
    12    7    9 1   
    13    7   14 1   
    14    8   15 1   
    15    8   16 1   
    16    8   17 1   
    17    9   18 1   
    18    9   19 1   
    19    9   20 1   
@<TRIPOS>SUBSTRUCTURE
     1 2RH         1 TEMP              0 ****  ****    0 ROOT
