@<TRIPOS>MOLECULE
2RH
   20    19     1     0     0
SMALL
bcc


@<TRIPOS>ATOM
      1 C1          1.5640   -0.0370   -0.1260 c3        1 2RH      0.014100
      2 O1         -0.6010   -1.0130   -0.4780 o         1 2RH     -0.837800
      3 C2          2.0500    0.1090    1.3110 c3        1 2RH     -0.079400
      4 O2         -0.5330    1.1480    0.1090 o         1 2RH     -0.837800
      5 C3          0.0150    0.0470   -0.1650 c         1 2RH      0.892600
      6 O3          2.0370   -1.2570   -0.6750 oh        1 2RH     -0.649800
      7 C4          3.5610    0.2630    1.4110 c3        1 2RH     -0.071700
      8 C5          3.9920    1.6760    1.0770 c3        1 2RH     -0.082600
      9 C6          4.0450   -0.1150    2.7960 c3        1 2RH     -0.082600
     10 H1          1.9970    0.7780   -0.7670 h1        1 2RH      0.036700
     11 H2          1.7340   -0.8010    1.8850 hc        1 2RH      0.045200
     12 H2A         1.5380    0.9980    1.7620 hc        1 2RH      0.045200
     13 HO3         1.2720   -1.8520   -0.7360 ho        1 2RH      0.423000
     14 H4          4.0260   -0.4410    0.6630 hc        1 2RH      0.057700
     15 H5          3.6330    1.9590    0.0590 hc        1 2RH      0.020867
     16 H5A         3.5670    2.4000    1.8140 hc        1 2RH      0.020867
     17 H5B         5.1060    1.7600    1.1000 hc        1 2RH      0.020867
     18 H6          5.1500    0.0200    2.8760 hc        1 2RH      0.020867
     19 H6A         3.5540    0.5250    3.5690 hc        1 2RH      0.020867
     20 H6B         3.8000   -1.1820    3.0150 hc        1 2RH      0.020867
@<TRIPOS>BOND
     1    1    3 1   
     2    1    5 1   
     3    1    6 1   
     4    1   10 1   
     5    2    5 1   
     6    3    7 1   
     7    3   11 1   
     8    3   12 1   
     9    4    5 1   
    10    6   13 1   
    11    7    8 1   
    12    7    9 1   
    13    7   14 1   
    14    8   15 1   
    15    8   16 1   
    16    8   17 1   
    17    9   18 1   
    18    9   19 1   
    19    9   20 1   
@<TRIPOS>SUBSTRUCTURE
     1 2RH         1 TEMP              0 ****  ****    0 ROOT
