@<TRIPOS>MOLECULE
2RH
   20    19     1     0     0
SMALL
bcc


@<TRIPOS>ATOM
      1 C1         -0.4850   -0.4320   -0.3000 c3        1 2RH      0.014100
      2 O1         -2.6550   -0.5080    0.7240 o         1 2RH     -0.837800
      3 C2          0.6250    0.2990    0.4460 c3        1 2RH     -0.079400
      4 O2         -2.0950    1.3740   -0.3560 o         1 2RH     -0.837800
      5 C3         -1.8560    0.2050    0.0490 c         1 2RH      0.892600
      6 O3         -0.4520   -1.8150    0.0180 oh        1 2RH     -0.649800
      7 C4          2.0160   -0.1150   -0.0120 c3        1 2RH     -0.071700
      8 C5          2.3900    0.5600   -1.3150 c3        1 2RH     -0.082600
      9 C6          3.0450    0.2060    1.0530 c3        1 2RH     -0.082600
     10 H1         -0.3160   -0.3670   -1.4090 h1        1 2RH      0.036700
     11 H2          0.4780    1.4000    0.2950 hc        1 2RH      0.045200
     12 H2A         0.5180    0.0810    1.5410 hc        1 2RH      0.045200
     13 HO3        -1.2160   -1.9880    0.5930 ho        1 2RH      0.423000
     14 H4          2.0050   -1.2310   -0.1750 hc        1 2RH      0.057700
     15 H5          3.3890    0.2050   -1.6670 hc        1 2RH      0.020867
     16 H5A         1.6310    0.3300   -2.1000 hc        1 2RH      0.020867
     17 H5B         2.4340    1.6690   -1.1840 hc        1 2RH      0.020867
     18 H6          2.8190   -0.3550    1.9920 hc        1 2RH      0.020867
     19 H6A         4.0680   -0.0770    0.7080 hc        1 2RH      0.020867
     20 H6B         3.0400    1.2980    1.2850 hc        1 2RH      0.020867
@<TRIPOS>BOND
     1    1    3 1   
     2    1    5 1   
     3    1    6 1   
     4    1   10 1   
     5    2    5 1   
     6    3    7 1   
     7    3   11 1   
     8    3   12 1   
     9    4    5 1   
    10    6   13 1   
    11    7    8 1   
    12    7    9 1   
    13    7   14 1   
    14    8   15 1   
    15    8   16 1   
    16    8   17 1   
    17    9   18 1   
    18    9   19 1   
    19    9   20 1   
@<TRIPOS>SUBSTRUCTURE
     1 2RH         1 TEMP              0 ****  ****    0 ROOT
