@<TRIPOS>MOLECULE
2RJ
   59    63     1     0     0
SMALL
bcc


@<TRIPOS>ATOM
      1 C01        -0.6050   -0.9660   -0.2130 c3        1 2RJ     -0.053800
      2 C02         0.7230   -0.4780    0.2290 ca        1 2RJ     -0.072300
      3 C03         1.2440   -0.8900    1.4690 ca        1 2RJ     -0.064300
      4 C04         2.5030   -0.3990    1.8510 ca        1 2RJ      0.096100
      5 C05         3.2450    0.4630    1.0360 ca        1 2RJ     -0.122000
      6 C06         2.7110    0.8530   -0.1890 ca        1 2RJ     -0.121000
      7 C07         1.4590    0.3860   -0.5880 ca        1 2RJ     -0.125000
      8 O08         2.9510   -0.6910    3.1470 os        1 2RJ     -0.335400
      9 C09         4.1210   -1.4340    3.2550 ca        1 2RJ      0.841300
     10 N10         4.6810   -2.0320    2.1490 nb        1 2RJ     -0.720000
     11 C11         5.7840   -2.7600    2.3930 ca        1 2RJ      0.453200
     12 C12         6.3420   -2.9030    3.6770 ca        1 2RJ     -0.385600
     13 C13         5.6980   -2.2260    4.7370 ca        1 2RJ      0.542800
     14 N14         4.5710   -1.4910    4.5540 nb        1 2RJ     -0.676000
     15 C15         6.2580   -2.3100    6.0890 cc        1 2RJ     -0.271100
     16 C16         7.3610   -1.6290    6.6660 cd        1 2RJ      0.386800
     17 N17         7.4900   -2.0110    8.0100 nd        1 2RJ     -0.661000
     18 C18         6.4950   -2.8900    8.2450 cc        1 2RJ      0.407400
     19 N19         5.7110   -3.1070    7.1060 na        1 2RJ     -0.180900
     20 C20         4.5310   -3.9400    7.0230 c3        1 2RJ      0.051000
     21 C21         3.3590   -3.3870    7.8530 c3        1 2RJ     -0.091900
     22 C22         2.1350   -4.2840    7.6830 c3        1 2RJ      0.163800
     23 N23         2.3980   -5.6740    7.9970 n3        1 2RJ     -0.824200
     24 C24         3.5340   -6.2260    7.2870 c3        1 2RJ      0.163800
     25 C25         4.8030   -5.3920    7.4520 c3        1 2RJ     -0.091900
     26 C26         8.2370   -0.6450    6.0510 ca        1 2RJ     -0.118500
     27 C27         8.7650   -0.8440    4.7690 ca        1 2RJ     -0.085500
     28 C28         9.6010    0.1030    4.1890 ca        1 2RJ     -0.170500
     29 C29         9.9250    1.2720    4.9020 ca        1 2RJ      0.125900
     30 C30         9.4080    1.4760    6.1940 ca        1 2RJ     -0.170500
     31 C31         8.5730    0.5190    6.7600 ca        1 2RJ     -0.085500
     32 F32        10.7380    2.2000    4.3430 f         1 2RJ     -0.142900
     33 C33         0.4690   -1.7980    2.3440 c3        1 2RJ     -0.052800
     34 H011       -1.3810   -0.7350    0.5600 hc        1 2RJ      0.046367
     35 H013       -0.9130   -0.4920   -1.1770 hc        1 2RJ      0.046367
     36 H012       -0.5790   -2.0760   -0.3570 hc        1 2RJ      0.046367
     37 H051        4.2320    0.8180    1.3650 ha        1 2RJ      0.147000
     38 H061        3.2790    1.5310   -0.8420 ha        1 2RJ      0.137000
     39 H071        1.0450    0.7010   -1.5580 ha        1 2RJ      0.134000
     40 H111        6.2370   -3.2530    1.5130 h4        1 2RJ      0.035100
     41 H121        7.2340   -3.5150    3.8500 ha        1 2RJ      0.165000
     42 H181        6.3000   -3.3940    9.1980 h5        1 2RJ      0.067100
     43 H201        4.2120   -3.9510    5.9360 h1        1 2RJ      0.071700
     44 H212        3.6490   -3.3340    8.9340 hc        1 2RJ      0.062700
     45 H211        3.0950   -2.3540    7.5100 hc        1 2RJ      0.062700
     46 H222        1.7470   -4.1530    6.6280 h1        1 2RJ      0.034450
     47 H221        1.3300   -3.9280    8.3860 h1        1 2RJ      0.034450
     48 H231        1.5800   -6.2290    7.8240 hn        1 2RJ      0.369800
     49 H241        3.3300   -6.3400    6.1810 h1        1 2RJ      0.034450
     50 H242        3.7240   -7.2550    7.7050 h1        1 2RJ      0.034450
     51 H251        5.6100   -5.8420    6.8180 hc        1 2RJ      0.062700
     52 H252        5.1440   -5.4190    8.5190 hc        1 2RJ      0.062700
     53 H271        8.5200   -1.7610    4.2120 ha        1 2RJ      0.144500
     54 H281       10.0140   -0.0530    3.1820 ha        1 2RJ      0.147500
     55 H301        9.6700    2.3900    6.7470 ha        1 2RJ      0.147500
     56 H311        8.1740    0.6770    7.7740 ha        1 2RJ      0.144500
     57 H333        1.0600   -2.0970    3.2440 hc        1 2RJ      0.050033
     58 H332       -0.4680   -1.2910    2.6890 hc        1 2RJ      0.050033
     59 H331        0.1780   -2.7210    1.7820 hc        1 2RJ      0.050033
@<TRIPOS>BOND
     1    1    2 1   
     2    1   34 1   
     3    1   35 1   
     4    1   36 1   
     5    2    3 ar  
     6    2    7 ar  
     7    3    4 ar  
     8    3   33 1   
     9    4    5 ar  
    10    4    8 1   
    11    5    6 ar  
    12    5   37 1   
    13    6    7 ar  
    14    6   38 1   
    15    7   39 1   
    16    8    9 1   
    17    9   10 ar  
    18    9   14 ar  
    19   10   11 ar  
    20   11   12 ar  
    21   11   40 1   
    22   12   13 ar  
    23   12   41 1   
    24   13   14 ar  
    25   13   15 1   
    26   15   16 2   
    27   15   19 1   
    28   16   17 1   
    29   16   26 1   
    30   17   18 2   
    31   18   19 1   
    32   18   42 1   
    33   19   20 1   
    34   20   21 1   
    35   20   25 1   
    36   20   43 1   
    37   21   22 1   
    38   21   44 1   
    39   21   45 1   
    40   22   23 1   
    41   22   46 1   
    42   22   47 1   
    43   23   24 1   
    44   23   48 1   
    45   24   25 1   
    46   24   49 1   
    47   24   50 1   
    48   25   51 1   
    49   25   52 1   
    50   26   27 ar  
    51   26   31 ar  
    52   27   28 ar  
    53   27   53 1   
    54   28   29 ar  
    55   28   54 1   
    56   29   30 ar  
    57   29   32 1   
    58   30   31 ar  
    59   30   55 1   
    60   31   56 1   
    61   33   57 1   
    62   33   58 1   
    63   33   59 1   
@<TRIPOS>SUBSTRUCTURE
     1 2RJ         1 TEMP              0 ****  ****    0 ROOT
