@<TRIPOS>MOLECULE
2RJ
   59    63     1     0     0
SMALL
bcc


@<TRIPOS>ATOM
      1 C01        -0.6110   -0.9880   -0.2100 c3        1 2RJ     -0.053800
      2 C02         0.7140   -0.4920    0.2310 ca        1 2RJ     -0.072300
      3 C03         1.2380   -0.9030    1.4720 ca        1 2RJ     -0.064300
      4 C04         2.4950   -0.4040    1.8530 ca        1 2RJ      0.096100
      5 C05         3.2320    0.4620    1.0380 ca        1 2RJ     -0.122000
      6 C06         2.6950    0.8500   -0.1860 ca        1 2RJ     -0.121000
      7 C07         1.4460    0.3760   -0.5850 ca        1 2RJ     -0.125000
      8 O08         2.9460   -0.6950    3.1490 os        1 2RJ     -0.335400
      9 C09         4.1190   -1.4320    3.2560 ca        1 2RJ      0.841300
     10 N10         4.6830   -2.0250    2.1490 nb        1 2RJ     -0.720000
     11 C11         5.7910   -2.7470    2.3920 ca        1 2RJ      0.453200
     12 C12         6.3490   -2.8880    3.6760 ca        1 2RJ     -0.385600
     13 C13         5.7000   -2.2180    4.7370 ca        1 2RJ      0.542800
     14 N14         4.5680   -1.4890    4.5550 nb        1 2RJ     -0.676000
     15 C15         6.2590   -2.3020    6.0890 cc        1 2RJ     -0.271100
     16 C16         7.3570   -1.6150    6.6690 cd        1 2RJ      0.386800
     17 N17         7.4880   -2.0000    8.0120 nd        1 2RJ     -0.661000
     18 C18         6.4980   -2.8850    8.2440 cc        1 2RJ      0.407400
     19 N19         5.7170   -3.1050    7.1040 na        1 2RJ     -0.180900
     20 C20         4.5420   -3.9450    7.0170 c3        1 2RJ      0.051000
     21 C21         3.3650   -3.4020    7.8460 c3        1 2RJ     -0.091900
     22 C22         2.1470   -4.3060    7.6730 c3        1 2RJ      0.163800
     23 N23         2.4190   -5.6950    7.9850 n7        1 2RJ     -0.824200
     24 C24         3.5600   -6.2380    7.2760 c3        1 2RJ      0.163800
     25 C25         4.8240   -5.3960    7.4440 c3        1 2RJ     -0.091900
     26 C26         8.2280   -0.6250    6.0570 ca        1 2RJ     -0.118500
     27 C27         8.7580   -0.8160    4.7750 ca        1 2RJ     -0.085500
     28 C28         9.5880    0.1380    4.1970 ca        1 2RJ     -0.170500
     29 C29         9.9040    1.3060    4.9130 ca        1 2RJ      0.125900
     30 C30         9.3850    1.5040    6.2060 ca        1 2RJ     -0.170500
     31 C31         8.5560    0.5400    6.7690 ca        1 2RJ     -0.085500
     32 F32        10.7120    2.2410    4.3580 f         1 2RJ     -0.142900
     33 C33         0.4690   -1.8150    2.3460 c3        1 2RJ     -0.052800
     34 H011       -0.5790   -2.0970   -0.3540 hc        1 2RJ      0.046033
     35 H013       -0.9220   -0.5150   -1.1730 hc        1 2RJ      0.046033
     36 H012       -1.3870   -0.7610    0.5640 hc        1 2RJ      0.046033
     37 H051        4.2170    0.8220    1.3670 ha        1 2RJ      0.147000
     38 H061        3.2590    1.5320   -0.8390 ha        1 2RJ      0.137000
     39 H071        1.0300    0.6900   -1.5540 ha        1 2RJ      0.134000
     40 H111        6.2470   -3.2350    1.5110 h4        1 2RJ      0.035100
     41 H121        7.2450   -3.4950    3.8480 ha        1 2RJ      0.165000
     42 H181        6.3060   -3.3940    9.1960 h5        1 2RJ      0.067100
     43 H201        4.2250   -3.9570    5.9300 h1        1 2RJ      0.071700
     44 H212        3.0960   -2.3690    7.5050 hc        1 2RJ      0.062700
     45 H211        3.6540   -3.3480    8.9280 hc        1 2RJ      0.062700
     46 H222        1.3390   -3.9570    8.3760 h1        1 2RJ      0.034450
     47 H221        1.7610   -4.1760    6.6180 h1        1 2RJ      0.034450
     48 H231        1.6050   -6.2550    7.8100 hn        1 2RJ      0.369800
     49 H241        3.7560   -7.2660    7.6930 h1        1 2RJ      0.034450
     50 H242        3.3580   -6.3520    6.1690 h1        1 2RJ      0.034450
     51 H251        5.6340   -5.8400    6.8110 hc        1 2RJ      0.062700
     52 H252        5.1620   -5.4230    8.5120 hc        1 2RJ      0.062700
     53 H271        8.5180   -1.7340    4.2150 ha        1 2RJ      0.144500
     54 H281       10.0030   -0.0130    3.1910 ha        1 2RJ      0.147500
     55 H301        9.6410    2.4180    6.7610 ha        1 2RJ      0.147500
     56 H311        8.1550    0.6930    7.7830 ha        1 2RJ      0.144500
     57 H333        0.1830   -2.7400    1.7840 hc        1 2RJ      0.050033
     58 H332       -0.4700   -1.3140    2.6920 hc        1 2RJ      0.050033
     59 H331        1.0620   -2.1110    3.2460 hc        1 2RJ      0.050033
@<TRIPOS>BOND
     1    1    2 1   
     2    1   34 1   
     3    1   35 1   
     4    1   36 1   
     5    2    3 ar  
     6    2    7 ar  
     7    3    4 ar  
     8    3   33 1   
     9    4    5 ar  
    10    4    8 1   
    11    5    6 ar  
    12    5   37 1   
    13    6    7 ar  
    14    6   38 1   
    15    7   39 1   
    16    8    9 1   
    17    9   10 ar  
    18    9   14 ar  
    19   10   11 ar  
    20   11   12 ar  
    21   11   40 1   
    22   12   13 ar  
    23   12   41 1   
    24   13   14 ar  
    25   13   15 1   
    26   15   16 2   
    27   15   19 1   
    28   16   17 1   
    29   16   26 1   
    30   17   18 2   
    31   18   19 1   
    32   18   42 1   
    33   19   20 1   
    34   20   21 1   
    35   20   25 1   
    36   20   43 1   
    37   21   22 1   
    38   21   44 1   
    39   21   45 1   
    40   22   23 1   
    41   22   46 1   
    42   22   47 1   
    43   23   24 1   
    44   23   48 1   
    45   24   25 1   
    46   24   49 1   
    47   24   50 1   
    48   25   51 1   
    49   25   52 1   
    50   26   27 ar  
    51   26   31 ar  
    52   27   28 ar  
    53   27   53 1   
    54   28   29 ar  
    55   28   54 1   
    56   29   30 ar  
    57   29   32 1   
    58   30   31 ar  
    59   30   55 1   
    60   31   56 1   
    61   33   57 1   
    62   33   58 1   
    63   33   59 1   
@<TRIPOS>SUBSTRUCTURE
     1 2RJ         1 TEMP              0 ****  ****    0 ROOT
