@<TRIPOS>MOLECULE
2RJ
   59    63     1     0     0
SMALL
bcc


@<TRIPOS>ATOM
      1 C01        -0.5880   -1.0210   -0.2400 c3        1 2RJ     -0.053800
      2 C02         0.7340   -0.5210    0.2040 ca        1 2RJ     -0.072300
      3 C03         1.2530   -0.9240    1.4500 ca        1 2RJ     -0.064300
      4 C04         2.5070   -0.4210    1.8340 ca        1 2RJ      0.096100
      5 C05         3.2460    0.4420    1.0180 ca        1 2RJ     -0.122000
      6 C06         2.7150    0.8220   -0.2110 ca        1 2RJ     -0.121000
      7 C07         1.4690    0.3440   -0.6130 ca        1 2RJ     -0.125000
      8 O08         2.9510   -0.7040    3.1340 os        1 2RJ     -0.335400
      9 C09         4.1250   -1.4380    3.2510 ca        1 2RJ      0.841300
     10 N10         4.6970   -2.0350    2.1500 nb        1 2RJ     -0.720000
     11 C11         5.8040   -2.7540    2.4030 ca        1 2RJ      0.453200
     12 C12         6.3550   -2.8890    3.6910 ca        1 2RJ     -0.385600
     13 C13         5.6990   -2.2140    4.7450 ca        1 2RJ      0.542800
     14 N14         4.5680   -1.4880    4.5530 nb        1 2RJ     -0.676000
     15 C15         6.2520   -2.2910    6.1000 cc        1 2RJ     -0.271100
     16 C16         7.3450   -1.5990    6.6830 cd        1 2RJ      0.386800
     17 N17         7.4690   -1.9770    8.0290 nd        1 2RJ     -0.661000
     18 C18         6.4790   -2.8630    8.2600 cc        1 2RJ      0.407400
     19 N19         5.7050   -3.0900    7.1160 na        1 2RJ     -0.180900
     20 C20         4.5320   -3.9320    7.0270 c3        1 2RJ      0.051000
     21 C21         3.3500   -3.3860    7.8470 c3        1 2RJ     -0.091900
     22 C22         2.1340   -4.2930    7.6710 c3        1 2RJ      0.163800
     23 N23         2.4060   -5.6810    7.9920 n3        1 2RJ     -0.824200
     24 C24         3.5520   -6.2250    7.2920 c3        1 2RJ      0.163800
     25 C25         4.8130   -5.3810    7.4630 c3        1 2RJ     -0.091900
     26 C26         8.2170   -0.6100    6.0710 ca        1 2RJ     -0.118500
     27 C27         8.7550   -0.8070    4.7930 ca        1 2RJ     -0.085500
     28 C28         9.5870    0.1460    4.2150 ca        1 2RJ     -0.170500
     29 C29         9.8970    1.3180    4.9280 ca        1 2RJ      0.125900
     30 C30         9.3710    1.5210    6.2170 ca        1 2RJ     -0.170500
     31 C31         8.5400    0.5590    6.7790 ca        1 2RJ     -0.085500
     32 F32        10.7060    2.2520    4.3720 f         1 2RJ     -0.142900
     33 C33         0.4800   -1.8330    2.3250 c3        1 2RJ     -0.052800
     34 H011       -0.5540   -2.1310   -0.3790 hc        1 2RJ      0.046033
     35 H013       -0.8940   -0.5540   -1.2080 hc        1 2RJ      0.046033
     36 H012       -1.3690   -0.7910    0.5280 hc        1 2RJ      0.046033
     37 H051        4.2290    0.8050    1.3500 ha        1 2RJ      0.148000
     38 H061        3.2820    1.5010   -0.8650 ha        1 2RJ      0.137000
     39 H071        1.0570    0.6510   -1.5860 ha        1 2RJ      0.134000
     40 H111        6.2660   -3.2460    1.5270 h4        1 2RJ      0.035100
     41 H121        7.2510   -3.4930    3.8700 ha        1 2RJ      0.165000
     42 H181        6.2820   -3.3670    9.2130 h5        1 2RJ      0.067100
     43 H201        4.2210   -3.9500    5.9380 h1        1 2RJ      0.071700
     44 H212        3.6320   -3.3270    8.9300 hc        1 2RJ      0.062700
     45 H211        3.0800   -2.3560    7.4990 hc        1 2RJ      0.062700
     46 H222        1.3210   -3.9420    8.3680 h1        1 2RJ      0.034450
     47 H221        1.7530   -4.1700    6.6130 h1        1 2RJ      0.034450
     48 H231        1.5950   -6.2420    7.8150 hn        1 2RJ      0.369800
     49 H241        3.7470   -7.2510    7.7150 h1        1 2RJ      0.034450
     50 H242        3.3570   -6.3450    6.1840 h1        1 2RJ      0.034450
     51 H251        5.6280   -5.8260    6.8370 hc        1 2RJ      0.062700
     52 H252        5.1460   -5.4020    8.5320 hc        1 2RJ      0.062700
     53 H271        8.5200   -1.7270    4.2360 ha        1 2RJ      0.144500
     54 H281       10.0070   -0.0090    3.2120 ha        1 2RJ      0.147500
     55 H301        9.6220    2.4380    6.7690 ha        1 2RJ      0.147500
     56 H311        8.1330    0.7160    7.7900 ha        1 2RJ      0.144500
     57 H333        0.1990   -2.7610    1.7670 hc        1 2RJ      0.050033
     58 H332       -0.4610   -1.3300    2.6640 hc        1 2RJ      0.050033
     59 H331        1.0690   -2.1230    3.2300 hc        1 2RJ      0.050033
@<TRIPOS>BOND
     1    1    2 1   
     2    1   34 1   
     3    1   35 1   
     4    1   36 1   
     5    2    3 ar  
     6    2    7 ar  
     7    3    4 ar  
     8    3   33 1   
     9    4    5 ar  
    10    4    8 1   
    11    5    6 ar  
    12    5   37 1   
    13    6    7 ar  
    14    6   38 1   
    15    7   39 1   
    16    8    9 1   
    17    9   10 ar  
    18    9   14 ar  
    19   10   11 ar  
    20   11   12 ar  
    21   11   40 1   
    22   12   13 ar  
    23   12   41 1   
    24   13   14 ar  
    25   13   15 1   
    26   15   16 2   
    27   15   19 1   
    28   16   17 1   
    29   16   26 1   
    30   17   18 2   
    31   18   19 1   
    32   18   42 1   
    33   19   20 1   
    34   20   21 1   
    35   20   25 1   
    36   20   43 1   
    37   21   22 1   
    38   21   44 1   
    39   21   45 1   
    40   22   23 1   
    41   22   46 1   
    42   22   47 1   
    43   23   24 1   
    44   23   48 1   
    45   24   25 1   
    46   24   49 1   
    47   24   50 1   
    48   25   51 1   
    49   25   52 1   
    50   26   27 ar  
    51   26   31 ar  
    52   27   28 ar  
    53   27   53 1   
    54   28   29 ar  
    55   28   54 1   
    56   29   30 ar  
    57   29   32 1   
    58   30   31 ar  
    59   30   55 1   
    60   31   56 1   
    61   33   57 1   
    62   33   58 1   
    63   33   59 1   
@<TRIPOS>SUBSTRUCTURE
     1 2RJ         1 TEMP              0 ****  ****    0 ROOT
