@<TRIPOS>MOLECULE
2RK
   51    55     1     0     0
SMALL
bcc


@<TRIPOS>ATOM
      1 C01         0.0140    0.3880    0.6530 c3        1 2RK     -0.073900
      2 C02         1.5370    0.2930    0.5710 c3        1 2RK      0.162800
      3 N03         2.1080   -0.5920    1.5670 n3        1 2RK     -0.821200
      4 C04         1.5060   -1.9100    1.5930 c3        1 2RK      0.162800
      5 C05        -0.0190   -1.8740    1.6960 c3        1 2RK     -0.073900
      6 C06        -0.6040   -1.0020    0.5910 c3        1 2RK     -0.106000
      7 C07        -2.1040   -0.9570    0.6930 cc        1 2RK      0.506800
      8 N08        -2.8530    0.1340    0.8680 nd        1 2RK     -0.704000
      9 C09        -4.2190   -0.2890    0.8400 cd        1 2RK      0.396300
     10 C10        -5.2750    0.5920    0.7190 ca        1 2RK     -0.102000
     11 C11        -6.5670    0.1710    0.2270 ca        1 2RK     -0.074000
     12 C12        -7.6250    1.0170    0.1290 ca        1 2RK     -0.164000
     13 C13        -7.4810    2.3860    0.5200 ca        1 2RK      0.062000
     14 C14        -8.3890    3.4240    0.5540 ce        1 2RK     -0.140600
     15 C15        -7.7040    4.6960    1.0090 c3        1 2RK     -0.012200
     16 C16        -6.2330    4.3040    1.2500 c3        1 2RK     -0.034100
     17 C17        -6.1560    2.8430    0.9430 ca        1 2RK     -0.137300
     18 C18        -5.1030    2.0010    1.0170 ca        1 2RK     -0.057000
     19 N19        -9.7720    3.4540    0.2360 ne        1 2RK      0.025700
     20 O20       -10.3180    2.4790   -0.1040 o         1 2RK     -0.207300
     21 C21        -4.2290   -1.7730    0.8090 cd        1 2RK     -0.212600
     22 C22        -5.2110   -2.6800    1.1230 cc        1 2RK      0.044000
     23 C23        -5.0690   -4.0950    0.8480 cc        1 2RK     -0.205000
     24 C24        -6.0690   -4.9760    1.1520 cd        1 2RK     -0.040300
     25 N25        -7.2360   -4.5710    1.7690 na        1 2RK     -0.239100
     26 C26        -7.3900   -3.2360    2.0970 cd        1 2RK     -0.040300
     27 C27        -6.4320   -2.3080    1.8010 cc        1 2RK     -0.205000
     28 N28        -2.8730   -2.1430    0.4980 na        1 2RK     -0.359900
     29 H011       -0.2840    0.8960    1.6060 hc        1 2RK      0.059950
     30 H012       -0.3560    1.0120   -0.2010 hc        1 2RK      0.059950
     31 H022        1.9720    1.3170    0.7480 h1        1 2RK      0.030200
     32 H021        1.8150   -0.0180   -0.4810 h1        1 2RK      0.030200
     33 H031        3.0980   -0.6710    1.4310 hn        1 2RK      0.365800
     34 H041        1.9160   -2.4460    2.4950 h1        1 2RK      0.030200
     35 H042        1.7790   -2.5200    0.6800 h1        1 2RK      0.030200
     36 H051       -0.3240   -1.4690    2.6960 hc        1 2RK      0.059950
     37 H052       -0.3980   -2.9240    1.6140 hc        1 2RK      0.059950
     38 H061       -0.3510   -1.4620   -0.4090 hc        1 2RK      0.071700
     39 H111       -6.6590   -0.8680   -0.1320 ha        1 2RK      0.135000
     40 H121       -8.5990    0.6900   -0.2690 ha        1 2RK      0.153000
     41 H152       -7.7820    5.4900    0.2260 hc        1 2RK      0.052200
     42 H151       -8.1730    5.0840    1.9470 hc        1 2RK      0.052200
     43 H162       -5.5510    4.8880    0.5830 hc        1 2RK      0.052700
     44 H161       -5.9360    4.5050    2.3090 hc        1 2RK      0.052700
     45 H181       -4.1100    2.3580    1.3300 ha        1 2RK      0.150000
     46 H231       -4.1660   -4.4680    0.3480 ha        1 2RK      0.160500
     47 H241       -5.9960   -6.0540    0.9200 h4        1 2RK      0.158500
     48 H261       -8.3250   -2.9730    2.6230 h4        1 2RK      0.158500
     49 H271       -6.5650   -1.2640    2.1250 ha        1 2RK      0.160500
     50 H1         -7.9640   -5.2210    1.9480 hn        1 2RK      0.299700
     51 H2         -2.5270   -3.0040    0.8500 hn        1 2RK      0.265700
@<TRIPOS>BOND
     1    1    2 1   
     2    1    6 1   
     3    1   29 1   
     4    1   30 1   
     5    2    3 1   
     6    2   31 1   
     7    2   32 1   
     8    3    4 1   
     9    3   33 1   
    10    4    5 1   
    11    4   34 1   
    12    4   35 1   
    13    5    6 1   
    14    5   36 1   
    15    5   37 1   
    16    6    7 1   
    17    6   38 1   
    18    7    8 2   
    19    7   28 1   
    20    8    9 1   
    21    9   10 2   
    22    9   21 1   
    23   10   11 ar  
    24   10   18 ar  
    25   11   12 ar  
    26   11   39 1   
    27   12   13 ar  
    28   12   40 1   
    29   13   14 2   
    30   13   17 ar  
    31   14   15 1   
    32   14   19 1   
    33   15   16 1   
    34   15   41 1   
    35   15   42 1   
    36   16   17 1   
    37   16   43 1   
    38   16   44 1   
    39   17   18 ar  
    40   18   45 1   
    41   19   20 2   
    42   21   22 2   
    43   21   28 1   
    44   22   23 1   
    45   22   27 1   
    46   23   24 2   
    47   23   46 1   
    48   24   25 1   
    49   24   47 1   
    50   25   26 1   
    51   25   50 1   
    52   26   27 2   
    53   26   48 1   
    54   27   49 1   
    55   28   51 1   
@<TRIPOS>SUBSTRUCTURE
     1 2RK         1 TEMP              0 ****  ****    0 ROOT
