@<TRIPOS>MOLECULE
2RK
   51    55     1     0     0
SMALL
bcc


@<TRIPOS>ATOM
      1 C01         0.0160    0.3890    0.6470 c3        1 2RK     -0.073900
      2 C02         1.5390    0.2960    0.5650 c3        1 2RK      0.162800
      3 N03         2.1110   -0.5860    1.5630 n7        1 2RK     -0.821200
      4 C04         1.5110   -1.9040    1.5930 c3        1 2RK      0.162800
      5 C05        -0.0140   -1.8700    1.6960 c3        1 2RK     -0.073900
      6 C06        -0.6010   -1.0020    0.5900 c3        1 2RK     -0.106000
      7 C07        -2.1010   -0.9580    0.6920 cc        1 2RK      0.506800
      8 N08        -2.8510    0.1320    0.8660 nd        1 2RK     -0.704000
      9 C09        -4.2160   -0.2930    0.8380 cd        1 2RK      0.396300
     10 C10        -5.2740    0.5870    0.7170 ca        1 2RK     -0.102000
     11 C11        -6.5660    0.1640    0.2260 ca        1 2RK     -0.074000
     12 C12        -7.6240    1.0080    0.1280 ca        1 2RK     -0.164000
     13 C13        -7.4820    2.3780    0.5170 ca        1 2RK      0.062000
     14 C14        -8.3910    3.4150    0.5500 ce        1 2RK     -0.140600
     15 C15        -7.7070    4.6880    1.0040 c3        1 2RK     -0.012200
     16 C16        -6.2360    4.2980    1.2460 c3        1 2RK     -0.034100
     17 C17        -6.1570    2.8370    0.9390 ca        1 2RK     -0.137300
     18 C18        -5.1030    1.9960    1.0140 ca        1 2RK     -0.057000
     19 N19        -9.7740    3.4430    0.2330 ne        1 2RK      0.025700
     20 O20       -10.3190    2.4670   -0.1070 o         1 2RK     -0.207300
     21 C21        -4.2240   -1.7770    0.8090 cd        1 2RK     -0.212600
     22 C22        -5.2050   -2.6850    1.1240 cc        1 2RK      0.044000
     23 C23        -5.0620   -4.0990    0.8500 cc        1 2RK     -0.205000
     24 C24        -6.0600   -4.9820    1.1550 cd        1 2RK     -0.040300
     25 N25        -7.2280   -4.5780    1.7720 na        1 2RK     -0.239100
     26 C26        -7.3830   -3.2420    2.0980 cd        1 2RK     -0.040300
     27 C27        -6.4270   -2.3130    1.8020 cc        1 2RK     -0.205000
     28 N28        -2.8680   -2.1450    0.4980 na        1 2RK     -0.359900
     29 H011       -0.2830    0.9000    1.6000 hc        1 2RK      0.059950
     30 H012       -0.3550    1.0110   -0.2070 hc        1 2RK      0.059950
     31 H022        1.9730    1.3210    0.7400 h1        1 2RK      0.030200
     32 H021        1.8170   -0.0170   -0.4850 h1        1 2RK      0.030200
     33 H031        3.1020   -0.6640    1.4270 hn        1 2RK      0.365800
     34 H041        1.9220   -2.4380    2.4960 h1        1 2RK      0.030200
     35 H042        1.7840   -2.5170    0.6820 h1        1 2RK      0.030200
     36 H051       -0.3200   -1.4630    2.6950 hc        1 2RK      0.059950
     37 H052       -0.3920   -2.9210    1.6170 hc        1 2RK      0.059950
     38 H061       -0.3470   -1.4630   -0.4100 hc        1 2RK      0.071700
     39 H111       -6.6550   -0.8750   -0.1330 ha        1 2RK      0.135000
     40 H121       -8.5970    0.6800   -0.2700 ha        1 2RK      0.153000
     41 H152       -7.7870    5.4810    0.2210 hc        1 2RK      0.052200
     42 H151       -8.1770    5.0770    1.9420 hc        1 2RK      0.052200
     43 H162       -5.9390    4.5000    2.3050 hc        1 2RK      0.052700
     44 H161       -5.5550    4.8820    0.5780 hc        1 2RK      0.052700
     45 H181       -4.1100    2.3540    1.3260 ha        1 2RK      0.150000
     46 H231       -4.1580   -4.4720    0.3500 ha        1 2RK      0.160500
     47 H241       -5.9860   -6.0600    0.9250 h4        1 2RK      0.158500
     48 H261       -8.3190   -2.9810    2.6240 h4        1 2RK      0.158500
     49 H271       -6.5610   -1.2690    2.1250 ha        1 2RK      0.160500
     50 H1         -7.9550   -5.2280    1.9510 hn        1 2RK      0.299700
     51 H2         -2.5210   -3.0060    0.8500 hn        1 2RK      0.265700
@<TRIPOS>BOND
     1    1    2 1   
     2    1    6 1   
     3    1   29 1   
     4    1   30 1   
     5    2    3 1   
     6    2   31 1   
     7    2   32 1   
     8    3    4 1   
     9    3   33 1   
    10    4    5 1   
    11    4   34 1   
    12    4   35 1   
    13    5    6 1   
    14    5   36 1   
    15    5   37 1   
    16    6    7 1   
    17    6   38 1   
    18    7    8 2   
    19    7   28 1   
    20    8    9 1   
    21    9   10 2   
    22    9   21 1   
    23   10   11 ar  
    24   10   18 ar  
    25   11   12 ar  
    26   11   39 1   
    27   12   13 ar  
    28   12   40 1   
    29   13   14 2   
    30   13   17 ar  
    31   14   15 1   
    32   14   19 1   
    33   15   16 1   
    34   15   41 1   
    35   15   42 1   
    36   16   17 1   
    37   16   43 1   
    38   16   44 1   
    39   17   18 ar  
    40   18   45 1   
    41   19   20 2   
    42   21   22 2   
    43   21   28 1   
    44   22   23 1   
    45   22   27 1   
    46   23   24 2   
    47   23   46 1   
    48   24   25 1   
    49   24   47 1   
    50   25   26 1   
    51   25   50 1   
    52   26   27 2   
    53   26   48 1   
    54   27   49 1   
    55   28   51 1   
@<TRIPOS>SUBSTRUCTURE
     1 2RK         1 TEMP              0 ****  ****    0 ROOT
