@<TRIPOS>MOLECULE
2RL
   57    53     1     0     0
SMALL
bcc


@<TRIPOS>ATOM
      1 C1         -3.8270    0.9660   -5.7370 c1        1 2RL      0.089000
      2 C2         -4.5760    1.3030   -4.5930 c2        1 2RL     -0.184000
      3 C3         -3.9460    1.3390   -3.3140 c1        1 2RL      0.031000
      4 C4         -2.5880    1.0400   -3.1980 c2        1 2RL     -0.086000
      5 C5         -1.8400    0.7030   -4.3500 c1        1 2RL     -0.163000
      6 C6         -2.4670    0.6670   -5.6200 c1        1 2RL      0.065000
      7 N7         -4.6970    1.6380   -2.1690 n1        1 2RL     -0.151000
      8 C8         -4.0870    1.6370   -0.9130 c1        1 2RL     -0.030000
      9 C9         -2.7130    1.3350   -0.7960 c1        1 2RL     -0.262000
     10 C10        -1.9690    1.0390   -1.9260 c2        1 2RL      0.123000
     11 O11        -0.6490    0.4890   -2.0250 os        1 2RL     -0.155000
     12 C12        -0.0240    0.4950   -0.7270 c2        1 2RL      0.049000
     13 C13         0.4760    1.7000   -0.1990 c2        1 2RL     -0.131000
     14 C14         1.2400    1.6870    0.9590 c1        1 2RL      0.046000
     15 C15         1.5320    0.3950    1.6420 c1        1 2RL      0.003000
     16 C16         1.0420   -0.7850    1.1230 c1        1 2RL     -0.090000
     17 C17         0.2630   -0.7690   -0.0580 c1        1 2RL     -0.156000
     18 O25         1.9860    2.8850    1.4090 os        1 2RL     -0.197000
     19 C26         2.9460    2.6990    2.2790 c3        1 2RL     -0.049000
     20 C27         2.7320    1.6470    3.2900 c3        1 2RL     -0.073000
     21 N28         2.3920    0.4360    2.8280 n         1 2RL     -0.267000
     22 O33        -1.8980    0.7880   -6.9670 os        1 2RL     -0.185000
     23 O34        -4.3490    1.1180   -7.0490 o         1 2RL     -0.185000
     24 C35         2.4800   -0.7490    3.7050 c2        1 2RL      0.390000
     25 O36         2.1590   -1.8860    3.2560 o         1 2RL     -0.350000
     26 N37         3.0490   -0.6400    4.9800 n         1 2RL     -0.313000
     27 C38         3.2680   -1.8150    5.7620 c2        1 2RL      0.071000
     28 C39         2.5030   -2.0510    6.8850 c2        1 2RL     -0.171000
     29 C40         2.7790   -3.1560    7.6960 c1        1 2RL     -0.100000
     30 C41         3.8260   -4.0170    7.3700 c1        1 2RL     -0.084000
     31 C42         4.5950   -3.7780    6.2380 c1        1 2RL     -0.101000
     32 C43         4.3240   -2.6860    5.4350 c1        1 2RL     -0.134000
     33 CL48        4.1380   -5.4210    8.3540 cl        1 2RL     -0.012000
     34 C49        -0.9810   -0.2460   -7.2990 c3        1 2RL     -0.082000
     35 C53        -5.5440    0.3490   -7.2950 c3        1 2RL     -0.082000
     36 H2         -5.5480    1.5170   -4.6770 ha        1 2RL      0.160000
     37 H5         -0.8670    0.4890   -4.2670 ha        1 2RL      0.159000
     38 H8         -4.5950    1.8400   -0.1390 ha        1 2RL      0.159000
     39 H9         -2.2650    1.3330    0.1280 ha        1 2RL      0.157000
     40 H13         0.3020    2.5620   -0.6710 ha        1 2RL      0.169000
     41 H16         1.2300   -1.6160    1.5630 ha        1 2RL      0.161000
     42 H17        -0.0230   -1.6060   -0.4610 ha        1 2RL      0.156000
     43 H26         3.0940    3.5520    2.7530 h1        1 2RL      0.110500
     44 H26A        3.7580    2.4820    1.7880 h1        1 2RL      0.110500
     45 H27         2.0140    1.9470    3.8790 h1        1 2RL      0.109000
     46 H27A        3.5860    1.5450    3.8000 h1        1 2RL      0.109000
     47 HN37        3.2640    0.1520    5.3020 hn        1 2RL      0.234000
     48 H39         1.7360   -1.4170    7.1260 ha        1 2RL      0.135000
     49 H40         2.2560   -3.3190    8.4640 ha        1 2RL      0.149000
     50 H42         5.3110   -4.3660    6.0150 ha        1 2RL      0.152000
     51 H43         4.8700   -2.5180    4.6330 ha        1 2RL      0.174000
     52 H49        -0.8940   -0.3130   -8.3110 h1        1 2RL      0.086000
     53 H49A       -1.2990   -1.0750   -6.9520 h1        1 2RL      0.086000
     54 H49B       -0.1010   -0.0430   -6.9060 h1        1 2RL      0.086000
     55 H53        -5.4600   -0.5350   -6.8650 h1        1 2RL      0.087000
     56 H53A       -6.2820    0.7980   -6.9420 h1        1 2RL      0.087000
     57 H53B       -5.6620    0.2370   -8.2370 h1        1 2RL      0.087000
@<TRIPOS>BOND
     1    1    2 1   
     2    1    6 1   
     3    2    3 1   
     4    2   36 1   
     5    3    4 1   
     6    4    5 1   
     7    4   10 1   
     8    5   37 1   
     9    6   22 1   
    10    7    8 1   
    11    8   38 1   
    12    9   10 1   
    13    9   39 1   
    14   10   11 1   
    15   11   12 1   
    16   12   13 1   
    17   12   17 1   
    18   13   14 1   
    19   13   40 1   
    20   14   18 1   
    21   15   16 1   
    22   15   21 1   
    23   16   41 1   
    24   17   42 1   
    25   18   19 1   
    26   19   20 1   
    27   19   43 1   
    28   19   44 1   
    29   20   21 1   
    30   20   45 1   
    31   20   46 1   
    32   21   24 1   
    33   22   34 1   
    34   23   35 1   
    35   24   25 1   
    36   24   26 1   
    37   26   27 1   
    38   26   47 1   
    39   27   28 1   
    40   27   32 1   
    41   28   29 1   
    42   28   48 1   
    43   29   49 1   
    44   30   31 1   
    45   30   33 1   
    46   31   50 1   
    47   32   51 1   
    48   34   52 1   
    49   34   53 1   
    50   34   54 1   
    51   35   55 1   
    52   35   56 1   
    53   35   57 1   
@<TRIPOS>SUBSTRUCTURE
     1 2RL         1 TEMP              0 ****  ****    0 ROOT
