@<TRIPOS>MOLECULE
2RL
   58    62     1     0     0
SMALL
bcc


@<TRIPOS>ATOM
      1 C1         -0.2630    0.8690    0.7220 ca        1 2RL      0.142100
      2 C2          1.0190    1.3160    0.5030 ca        1 2RL     -0.247300
      3 C3          2.1060    0.8120    1.2890 ca        1 2RL      0.419600
      4 C4          1.8220   -0.1560    2.3040 ca        1 2RL     -0.135300
      5 C5          0.4950   -0.6090    2.5120 ca        1 2RL     -0.186000
      6 C6         -0.5330   -0.1140    1.7430 ca        1 2RL      0.132100
      7 N7          3.3850    1.2710    1.0450 nb        1 2RL     -0.644000
      8 C8          4.3720    0.7880    1.7800 ca        1 2RL      0.418200
      9 C9          4.2090   -0.1760    2.8180 ca        1 2RL     -0.282300
     10 C10         2.9300   -0.6330    3.0650 ca        1 2RL      0.120100
     11 O11         2.6670   -1.6620    3.9750 os        1 2RL     -0.231200
     12 C12         3.1470   -1.5090    5.2590 ca        1 2RL      0.175100
     13 C13         3.5660   -0.2910    5.8030 ca        1 2RL     -0.189000
     14 C14         3.9940   -0.2670    7.1320 ca        1 2RL      0.141100
     15 C15         4.0230   -1.4400    7.9310 ca        1 2RL     -0.094400
     16 C16         3.5450   -2.6390    7.3630 ca        1 2RL     -0.069000
     17 C17         3.1210   -2.6790    6.0440 ca        1 2RL     -0.155000
     18 O25         4.4030    0.9630    7.6260 os        1 2RL     -0.299900
     19 C26         4.1200    1.0990    9.0170 c3        1 2RL      0.124400
     20 C27         4.7860   -0.0290    9.8120 c3        1 2RL      0.028000
     21 N28         4.4910   -1.3560    9.2840 n         1 2RL     -0.278000
     22 O33        -1.8570   -0.4700    1.8550 os        1 2RL     -0.292900
     23 O34        -1.3760    1.2850    0.0310 os        1 2RL     -0.296900
     24 C35         5.0380   -2.4690    9.8750 c         1 2RL      0.639100
     25 O36         4.9950   -3.6550    9.5290 o         1 2RL     -0.501100
     26 N37         5.7560   -2.3150   11.2380 n4        1 2RL     -0.533200
     27 C38         4.8140   -2.1610   12.3460 ca        1 2RL     -0.070400
     28 C39         3.8340   -3.1470   12.5620 ca        1 2RL     -0.092000
     29 C40         2.9560   -3.0150   13.6330 ca        1 2RL     -0.106000
     30 C41         3.0490   -1.9090   14.4890 ca        1 2RL      0.060400
     31 C42         4.0290   -0.9300   14.2700 ca        1 2RL     -0.106000
     32 C43         4.9110   -1.0490   13.2030 ca        1 2RL     -0.092000
     33 CL48        1.9830   -1.7560   15.7850 cl        1 2RL     -0.003400
     34 C49        -2.1500   -1.5070    2.7870 c3        1 2RL      0.107700
     35 C53        -1.1530    2.2280   -1.0150 c3        1 2RL      0.104700
     36 H2          1.2380    2.0610   -0.2780 ha        1 2RL      0.168000
     37 H5          0.3180   -1.3650    3.2910 ha        1 2RL      0.153000
     38 H8          5.3840    1.1730    1.5510 h4        1 2RL      0.033100
     39 H9          5.0770   -0.5350    3.3850 ha        1 2RL      0.153000
     40 H13         3.5620    0.6390    5.2130 ha        1 2RL      0.189000
     41 H16         3.5060   -3.5730    7.9490 ha        1 2RL      0.169000
     42 H17         2.7600   -3.6200    5.6000 ha        1 2RL      0.176000
     43 H26         3.0110    1.1110    9.1820 h1        1 2RL      0.093200
     44 H26A        4.5730    2.0870    9.2980 h1        1 2RL      0.093200
     45 H27         5.9020    0.1450    9.7900 h1        1 2RL      0.065200
     46 H27A        4.4160    0.0290   10.8770 h1        1 2RL      0.065200
     47 HN37        6.4110   -1.5290   11.2230 hn        1 2RL      0.464800
     48 H39         3.7520   -4.0230   11.8930 ha        1 2RL      0.164500
     49 H40         2.1880   -3.7900   13.8040 ha        1 2RL      0.183500
     50 H42         4.1060   -0.0610   14.9470 ha        1 2RL      0.183500
     51 H43         5.6800   -0.2730   13.0550 ha        1 2RL      0.164500
     52 H49        -1.5970   -2.4420    2.5260 h1        1 2RL      0.049367
     53 H49A       -3.2540   -1.6510    2.6690 h1        1 2RL      0.049367
     54 H49B       -1.9020   -1.1810    3.8260 h1        1 2RL      0.049367
     55 H53        -2.1800    2.3940   -1.4290 h1        1 2RL      0.053367
     56 H53A       -0.7330    3.1780   -0.6030 h1        1 2RL      0.053367
     57 H53B       -0.4750    1.8010   -1.7930 h1        1 2RL      0.053367
     58 H372        6.2820   -3.1930   11.3770 hn        1 2RL      0.464800
@<TRIPOS>BOND
     1    1    2 ar  
     2    1    6 ar  
     3    1   23 1   
     4    2    3 ar  
     5    2   36 1   
     6    3    4 ar  
     7    3    7 ar  
     8    4    5 ar  
     9    4   10 ar  
    10    5    6 ar  
    11    5   37 1   
    12    6   22 1   
    13    7    8 ar  
    14    8    9 ar  
    15    8   38 1   
    16    9   10 ar  
    17    9   39 1   
    18   10   11 1   
    19   11   12 1   
    20   12   13 ar  
    21   12   17 ar  
    22   13   14 ar  
    23   13   40 1   
    24   14   15 ar  
    25   14   18 1   
    26   15   16 ar  
    27   15   21 1   
    28   16   17 ar  
    29   16   41 1   
    30   17   42 1   
    31   18   19 1   
    32   19   20 1   
    33   19   43 1   
    34   19   44 1   
    35   20   21 1   
    36   20   45 1   
    37   20   46 1   
    38   21   24 1   
    39   22   34 1   
    40   23   35 1   
    41   24   25 2   
    42   24   26 1   
    43   26   27 1   
    44   26   47 1   
    45   26   58 1   
    46   27   28 ar  
    47   27   32 ar  
    48   28   29 ar  
    49   28   48 1   
    50   29   30 ar  
    51   29   49 1   
    52   30   31 ar  
    53   30   33 1   
    54   31   32 ar  
    55   31   50 1   
    56   32   51 1   
    57   34   52 1   
    58   34   53 1   
    59   34   54 1   
    60   35   55 1   
    61   35   56 1   
    62   35   57 1   
@<TRIPOS>SUBSTRUCTURE
     1 2RL         1 TEMP              0 ****  ****    0 ROOT
