@<TRIPOS>MOLECULE
2RL
   57    61     1     0     0
SMALL
bcc


@<TRIPOS>ATOM
      1 C1         -7.5190    0.7520    0.0930 ca        1 2RL      0.134100
      2 C2         -7.2470   -0.3120    0.9220 ca        1 2RL     -0.249300
      3 C3         -5.8960   -0.7260    1.1510 ca        1 2RL      0.423600
      4 C4         -4.8470   -0.0080    0.5000 ca        1 2RL     -0.151300
      5 C5         -5.1440    1.0860   -0.3500 ca        1 2RL     -0.163000
      6 C6         -6.4500    1.4660   -0.5570 ca        1 2RL      0.110100
      7 N7         -5.6500   -1.7990    1.9880 nb        1 2RL     -0.677000
      8 C8         -4.3920   -2.1560    2.1790 ca        1 2RL      0.435200
      9 C9         -3.2650   -1.5150    1.5860 ca        1 2RL     -0.326300
     10 C10        -3.5050   -0.4430    0.7500 ca        1 2RL      0.167100
     11 O11        -2.5230    0.3150    0.1320 os        1 2RL     -0.245200
     12 C12        -1.2300   -0.2100    0.1240 ca        1 2RL      0.097100
     13 C13        -0.9510   -1.4530   -0.4450 ca        1 2RL     -0.156000
     14 C14         0.3860   -1.8570   -0.5390 ca        1 2RL      0.094100
     15 C15         1.4460   -1.0390   -0.0670 ca        1 2RL     -0.005400
     16 C16         1.1160    0.2170    0.4850 ca        1 2RL     -0.090000
     17 C17        -0.2070    0.6270    0.5880 ca        1 2RL     -0.137000
     18 O25         0.5880   -3.1210   -1.0710 os        1 2RL     -0.313900
     19 C26         1.9190   -3.3420   -1.5360 c3        1 2RL      0.101400
     20 C27         2.9500   -2.8940   -0.4950 c3        1 2RL      0.043000
     21 N28         2.7820   -1.5160   -0.0750 n         1 2RL     -0.364000
     22 O33        -6.8620    2.5080   -1.3600 os        1 2RL     -0.301900
     23 O34        -8.7780    1.2300   -0.1940 os        1 2RL     -0.301900
     24 C35         3.8350   -0.5760   -0.3480 c         1 2RL      0.764100
     25 O36         3.5950    0.5510   -0.8250 o         1 2RL     -0.590100
     26 N37         5.1390   -0.9890   -0.0200 n         1 2RL     -0.459100
     27 C38         6.2590   -0.1360   -0.0430 ca        1 2RL      0.063600
     28 C39         6.3710    0.9530   -0.9330 ca        1 2RL     -0.152500
     29 C40         7.5280    1.7250   -0.9550 ca        1 2RL     -0.100500
     30 C41         8.5910    1.4270   -0.1000 ca        1 2RL     -0.005600
     31 C42         8.4960    0.3510    0.7870 ca        1 2RL     -0.100500
     32 C43         7.3430   -0.4220    0.8220 ca        1 2RL     -0.152500
     33 CL48       10.0020    2.3720   -0.1360 cl        1 2RL     -0.090400
     34 C49        -5.8240    3.2330   -2.0140 c3        1 2RL      0.107700
     35 C53        -9.8630    0.5510    0.4330 c3        1 2RL      0.107700
     36 H2         -8.0570   -0.8650    1.4240 ha        1 2RL      0.160000
     37 H5         -4.3060    1.6120   -0.8320 ha        1 2RL      0.159000
     38 H8         -4.2270   -3.0170    2.8540 h4        1 2RL      0.022100
     39 H9         -2.2510   -1.8750    1.7980 ha        1 2RL      0.158000
     40 H13        -1.7530   -2.1090   -0.8140 ha        1 2RL      0.168000
     41 H16         1.9160    0.8930    0.8290 ha        1 2RL      0.161000
     42 H17        -0.4570    1.6090    1.0180 ha        1 2RL      0.157000
     43 H26         1.9710   -4.4520   -1.6910 h1        1 2RL      0.071200
     44 H26A        2.0630   -2.8050   -2.5100 h1        1 2RL      0.071200
     45 H27         2.8320   -3.5340    0.4270 h1        1 2RL      0.069700
     46 H27A        3.9720   -3.0750   -0.9270 h1        1 2RL      0.069700
     47 HN37        5.2350   -1.7940    0.5610 hn        1 2RL      0.320500
     48 H39         5.5410    1.2110   -1.6120 ha        1 2RL      0.154500
     49 H40         7.5980    2.5740   -1.6540 ha        1 2RL      0.150500
     50 H42         9.3320    0.1140    1.4650 ha        1 2RL      0.150500
     51 H43         7.2880   -1.2630    1.5310 ha        1 2RL      0.154500
     52 H49        -5.1430    3.7090   -1.2670 h1        1 2RL      0.047033
     53 H49A       -5.2480    2.5650   -2.7000 h1        1 2RL      0.047033
     54 H49B       -6.3810    4.0110   -2.5940 h1        1 2RL      0.047033
     55 H53        -9.8960   -0.5180    0.1130 h1        1 2RL      0.047700
     56 H53A       -9.7860    0.6260    1.5440 h1        1 2RL      0.047700
     57 H53B      -10.7610    1.1050    0.0590 h1        1 2RL      0.047700
@<TRIPOS>BOND
     1    1    2 ar  
     2    1    6 ar  
     3    1   23 1   
     4    2    3 ar  
     5    2   36 1   
     6    3    4 ar  
     7    3    7 ar  
     8    4    5 ar  
     9    4   10 ar  
    10    5    6 ar  
    11    5   37 1   
    12    6   22 1   
    13    7    8 ar  
    14    8    9 ar  
    15    8   38 1   
    16    9   10 ar  
    17    9   39 1   
    18   10   11 1   
    19   11   12 1   
    20   12   13 ar  
    21   12   17 ar  
    22   13   14 ar  
    23   13   40 1   
    24   14   15 ar  
    25   14   18 1   
    26   15   16 ar  
    27   15   21 1   
    28   16   17 ar  
    29   16   41 1   
    30   17   42 1   
    31   18   19 1   
    32   19   20 1   
    33   19   43 1   
    34   19   44 1   
    35   20   21 1   
    36   20   45 1   
    37   20   46 1   
    38   21   24 1   
    39   22   34 1   
    40   23   35 1   
    41   24   25 2   
    42   24   26 1   
    43   26   27 1   
    44   26   47 1   
    45   27   28 ar  
    46   27   32 ar  
    47   28   29 ar  
    48   28   48 1   
    49   29   30 ar  
    50   29   49 1   
    51   30   31 ar  
    52   30   33 1   
    53   31   32 ar  
    54   31   50 1   
    55   32   51 1   
    56   34   52 1   
    57   34   53 1   
    58   34   54 1   
    59   35   55 1   
    60   35   56 1   
    61   35   57 1   
@<TRIPOS>SUBSTRUCTURE
     1 2RL         1 TEMP              0 ****  ****    0 ROOT
