@<TRIPOS>MOLECULE
2RL
   57    61     1     0     0
SMALL
bcc


@<TRIPOS>ATOM
      1 C1         -0.0240    0.2770   -0.0530 ca        1 2RL      0.134100
      2 C2          1.3190    0.5690   -0.1290 ca        1 2RL     -0.249300
      3 C3          2.1580    0.4210    1.0220 ca        1 2RL      0.423600
      4 C4          1.5670   -0.0330    2.2390 ca        1 2RL     -0.151300
      5 C5          0.1820   -0.3290    2.3000 ca        1 2RL     -0.163000
      6 C6         -0.6070   -0.1800    1.1820 ca        1 2RL      0.110100
      7 N7          3.5040    0.7230    0.9200 nb        1 2RL     -0.677000
      8 C8          4.2520    0.5760    2.0000 ca        1 2RL      0.435200
      9 C9          3.7740    0.1280    3.2660 ca        1 2RL     -0.326300
     10 C10         2.4320   -0.1740    3.3730 ca        1 2RL      0.167100
     11 O11         1.8180   -0.6620    4.5160 os        1 2RL     -0.245200
     12 C12         2.5400   -0.5760    5.7070 ca        1 2RL      0.097100
     13 C13         2.9920    0.6480    6.2000 ca        1 2RL     -0.155000
     14 C14         3.5910    0.6760    7.4650 ca        1 2RL      0.094100
     15 C15         3.7500   -0.5030    8.2390 ca        1 2RL     -0.005400
     16 C16         3.2620   -1.7150    7.7060 ca        1 2RL     -0.091000
     17 C17         2.6700   -1.7570    6.4510 ca        1 2RL     -0.137000
     18 O25         4.0580    1.9150    7.8730 os        1 2RL     -0.313900
     19 C26         4.2750    2.0120    9.2800 c3        1 2RL      0.101400
     20 C27         5.0640    0.8070    9.8030 c3        1 2RL      0.044000
     21 N28         4.4560   -0.4670    9.4700 n         1 2RL     -0.364000
     22 O33        -1.9600   -0.4340    1.1200 os        1 2RL     -0.301900
     23 O34        -0.9170    0.3840   -1.0960 os        1 2RL     -0.301900
     24 C35         4.0040   -1.3180   10.5360 c         1 2RL      0.764100
     25 O36         2.8860   -1.8690   10.5010 o         1 2RL     -0.590100
     26 N37         4.9030   -1.5140   11.6000 n         1 2RL     -0.459100
     27 C38         4.7050   -2.4570   12.6280 ca        1 2RL      0.063600
     28 C39         3.4240   -2.8340   13.0810 ca        1 2RL     -0.152500
     29 C40         3.2890   -3.7240   14.1420 ca        1 2RL     -0.100500
     30 C41         4.4210   -4.2460   14.7730 ca        1 2RL     -0.005600
     31 C42         5.6970   -3.8810   14.3360 ca        1 2RL     -0.100500
     32 C43         5.8430   -2.9990   13.2730 ca        1 2RL     -0.152500
     33 CL48        4.2470   -5.3280   16.0710 cl        1 2RL     -0.090400
     34 C49        -2.5610   -0.8890    2.3280 c3        1 2RL      0.107700
     35 C53        -0.3780    0.8310   -2.3370 c3        1 2RL      0.107700
     36 H2          1.7740    0.9190   -1.0680 ha        1 2RL      0.160000
     37 H5         -0.2330   -0.6770    3.2580 ha        1 2RL      0.159000
     38 H8          5.3240    0.8230    1.8860 h4        1 2RL      0.022100
     39 H9          4.4640    0.0330    4.1140 ha        1 2RL      0.158000
     40 H13         2.8860    1.5760    5.6190 ha        1 2RL      0.168000
     41 H16         3.3370   -2.6440    8.2960 ha        1 2RL      0.161000
     42 H17         2.2910   -2.7050    6.0420 ha        1 2RL      0.157000
     43 H26         4.8700    2.9560    9.3990 h1        1 2RL      0.071200
     44 H26A        3.2850    2.1080    9.7990 h1        1 2RL      0.071200
     45 H27         5.1830    0.9330   10.9140 h1        1 2RL      0.069700
     46 H27A        6.0890    0.8150    9.3300 h1        1 2RL      0.069700
     47 HN37        5.8510   -1.2370   11.4600 hn        1 2RL      0.319500
     48 H39         2.5160   -2.4400   12.5930 ha        1 2RL      0.154500
     49 H40         2.2810   -4.0110   14.4820 ha        1 2RL      0.150500
     50 H42         6.5920   -4.2930   14.8290 ha        1 2RL      0.150500
     51 H43         6.8580   -2.7280   12.9430 ha        1 2RL      0.154500
     52 H49        -2.4600   -0.1210    3.1330 h1        1 2RL      0.047033
     53 H49A       -2.1110   -1.8580    2.6520 h1        1 2RL      0.047033
     54 H49B       -3.6350   -1.0270    2.0440 h1        1 2RL      0.047033
     55 H53         0.0480    1.8580   -2.2350 h1        1 2RL      0.047700
     56 H53A       -1.2690    0.8370   -3.0150 h1        1 2RL      0.047700
     57 H53B        0.3980    0.1190   -2.7090 h1        1 2RL      0.047700
@<TRIPOS>BOND
     1    1    2 ar  
     2    1    6 ar  
     3    1   23 1   
     4    2    3 ar  
     5    2   36 1   
     6    3    4 ar  
     7    3    7 ar  
     8    4    5 ar  
     9    4   10 ar  
    10    5    6 ar  
    11    5   37 1   
    12    6   22 1   
    13    7    8 ar  
    14    8    9 ar  
    15    8   38 1   
    16    9   10 ar  
    17    9   39 1   
    18   10   11 1   
    19   11   12 1   
    20   12   13 ar  
    21   12   17 ar  
    22   13   14 ar  
    23   13   40 1   
    24   14   15 ar  
    25   14   18 1   
    26   15   16 ar  
    27   15   21 1   
    28   16   17 ar  
    29   16   41 1   
    30   17   42 1   
    31   18   19 1   
    32   19   20 1   
    33   19   43 1   
    34   19   44 1   
    35   20   21 1   
    36   20   45 1   
    37   20   46 1   
    38   21   24 1   
    39   22   34 1   
    40   23   35 1   
    41   24   25 2   
    42   24   26 1   
    43   26   27 1   
    44   26   47 1   
    45   27   28 ar  
    46   27   32 ar  
    47   28   29 ar  
    48   28   48 1   
    49   29   30 ar  
    50   29   49 1   
    51   30   31 ar  
    52   30   33 1   
    53   31   32 ar  
    54   31   50 1   
    55   32   51 1   
    56   34   52 1   
    57   34   53 1   
    58   34   54 1   
    59   35   55 1   
    60   35   56 1   
    61   35   57 1   
@<TRIPOS>SUBSTRUCTURE
     1 2RL         1 TEMP              0 ****  ****    0 ROOT
