@<TRIPOS>MOLECULE
2RL
   57    61     1     0     0
SMALL
bcc


@<TRIPOS>ATOM
      1 C1         -0.0340    0.2890   -0.0450 ca        1 2RL      0.134100
      2 C2          1.3060    0.5920   -0.1220 ca        1 2RL     -0.249300
      3 C3          2.1500    0.4410    1.0250 ca        1 2RL      0.423600
      4 C4          1.5650   -0.0290    2.2400 ca        1 2RL     -0.150300
      5 C5          0.1830   -0.3360    2.3010 ca        1 2RL     -0.163000
      6 C6         -0.6100   -0.1830    1.1870 ca        1 2RL      0.110100
      7 N7          3.4930    0.7530    0.9220 nb        1 2RL     -0.677000
      8 C8          4.2450    0.6030    1.9980 ca        1 2RL      0.435200
      9 C9          3.7740    0.1410    3.2620 ca        1 2RL     -0.326300
     10 C10         2.4340   -0.1710    3.3700 ca        1 2RL      0.167100
     11 O11         1.8270   -0.6750    4.5110 os        1 2RL     -0.245200
     12 C12         2.5490   -0.5860    5.7020 ca        1 2RL      0.097100
     13 C13         2.9930    0.6400    6.1970 ca        1 2RL     -0.156000
     14 C14         3.5910    0.6690    7.4630 ca        1 2RL      0.095100
     15 C15         3.7560   -0.5100    8.2350 ca        1 2RL     -0.005400
     16 C16         3.2760   -1.7240    7.7000 ca        1 2RL     -0.090000
     17 C17         2.6850   -1.7670    6.4440 ca        1 2RL     -0.137000
     18 O25         4.0510    1.9100    7.8730 os        1 2RL     -0.313900
     19 C26         4.2670    2.0060    9.2800 c3        1 2RL      0.101400
     20 C27         5.0630    0.8040    9.8010 c3        1 2RL      0.043000
     21 N28         4.4610   -0.4720    9.4660 n         1 2RL     -0.364000
     22 O33        -1.9610   -0.4470    1.1260 os        1 2RL     -0.301900
     23 O34        -0.9300    0.3980   -1.0860 os        1 2RL     -0.301900
     24 C35         4.0100   -1.3250   10.5320 c         1 2RL      0.763100
     25 O36         2.8940   -1.8810   10.4930 o         1 2RL     -0.590100
     26 N37         4.9070   -1.5180   11.5980 ns        1 2RL     -0.459100
     27 C38         4.7100   -2.4610   12.6250 ca        1 2RL      0.063600
     28 C39         3.4290   -2.8420   13.0760 ca        1 2RL     -0.152500
     29 C40         3.2950   -3.7320   14.1370 ca        1 2RL     -0.100500
     30 C41         4.4270   -4.2500   14.7710 ca        1 2RL     -0.005600
     31 C42         5.7030   -3.8810   14.3370 ca        1 2RL     -0.100500
     32 C43         5.8480   -2.9990   13.2730 ca        1 2RL     -0.152500
     33 Cl48        4.2550   -5.3320   16.0690 cl        1 2RL     -0.090400
     34 C49        -2.5560   -0.9180    2.3310 c3        1 2RL      0.107700
     35 C53        -0.3990    0.8610   -2.3240 c3        1 2RL      0.107700
     36 H2          1.7560    0.9540   -1.0600 ha        1 2RL      0.160000
     37 H5         -0.2270   -0.6950    3.2570 ha        1 2RL      0.159000
     38 H8          5.3150    0.8600    1.8840 h4        1 2RL      0.022100
     39 H9          4.4670    0.0440    4.1070 ha        1 2RL      0.158000
     40 H13         2.8820    1.5680    5.6180 ha        1 2RL      0.168000
     41 H16         3.3550   -2.6540    8.2880 ha        1 2RL      0.161000
     42 H17         2.3110   -2.7170    6.0340 ha        1 2RL      0.157000
     43 H26         3.2770    2.0960    9.7990 h1        1 2RL      0.071200
     44 H26A        4.8580    2.9520    9.4000 h1        1 2RL      0.071200
     45 H27         5.1820    0.9290   10.9120 h1        1 2RL      0.069700
     46 H27A        6.0870    0.8180    9.3270 h1        1 2RL      0.069700
     47 HN37        5.8540   -1.2380   11.4590 hn        1 2RL      0.320500
     48 H39         2.5220   -2.4510   12.5860 ha        1 2RL      0.154500
     49 H40         2.2870   -4.0220   14.4750 ha        1 2RL      0.150500
     50 H42         6.5980   -4.2890   14.8320 ha        1 2RL      0.150500
     51 H43         6.8630   -2.7250   12.9460 ha        1 2RL      0.154500
     52 H49        -2.0960   -1.8860    2.6460 h1        1 2RL      0.047033
     53 H49A       -2.4580   -0.1560    3.1430 h1        1 2RL      0.047033
     54 H49B       -3.6290   -1.0620    2.0490 h1        1 2RL      0.047033
     55 H53        -1.2910    0.8660   -3.0000 h1        1 2RL      0.047700
     56 H53A        0.0200    1.8900   -2.2140 h1        1 2RL      0.047700
     57 H53B        0.3820    0.1580   -2.7050 h1        1 2RL      0.047700
@<TRIPOS>BOND
     1    1    2 ar  
     2    1    6 ar  
     3    1   23 1   
     4    2    3 ar  
     5    2   36 1   
     6    3    4 ar  
     7    3    7 ar  
     8    4    5 ar  
     9    4   10 ar  
    10    5    6 ar  
    11    5   37 1   
    12    6   22 1   
    13    7    8 ar  
    14    8    9 ar  
    15    8   38 1   
    16    9   10 ar  
    17    9   39 1   
    18   10   11 1   
    19   11   12 1   
    20   12   13 ar  
    21   12   17 ar  
    22   13   14 ar  
    23   13   40 1   
    24   14   15 ar  
    25   14   18 1   
    26   15   16 ar  
    27   15   21 1   
    28   16   17 ar  
    29   16   41 1   
    30   17   42 1   
    31   18   19 1   
    32   19   20 1   
    33   19   43 1   
    34   19   44 1   
    35   20   21 1   
    36   20   45 1   
    37   20   46 1   
    38   21   24 1   
    39   22   34 1   
    40   23   35 1   
    41   24   25 2   
    42   24   26 1   
    43   26   27 1   
    44   26   47 1   
    45   27   28 ar  
    46   27   32 ar  
    47   28   29 ar  
    48   28   48 1   
    49   29   30 ar  
    50   29   49 1   
    51   30   31 ar  
    52   30   33 1   
    53   31   32 ar  
    54   31   50 1   
    55   32   51 1   
    56   34   52 1   
    57   34   53 1   
    58   34   54 1   
    59   35   55 1   
    60   35   56 1   
    61   35   57 1   
@<TRIPOS>SUBSTRUCTURE
     1 2RL         1 TEMP              0 ****  ****    0 ROOT
