@<TRIPOS>MOLECULE
2RM
   47    50     1     0     0
SMALL
bcc


@<TRIPOS>ATOM
      1 C1         -0.3420    0.0110    0.0810 cc        1 2RM     -0.113000
      2 C2          1.0930    0.0140   -0.0530 cc        1 2RM     -0.136000
      3 C3          1.6370    0.0120    1.2320 cd        1 2RM     -0.073300
      4 C4          2.9690    0.0130    1.7500 cd        1 2RM     -0.053000
      5 C5          3.1840    0.0100    3.0950 cc        1 2RM     -0.152000
      6 C6          2.0720    0.0060    4.0080 cc        1 2RM     -0.287600
      7 C7          0.7620    0.0050    3.5060 cd        1 2RM      0.101700
      8 N8          0.5380    0.0080    2.1720 na        1 2RM      0.006700
      9 C9         -0.6620    0.0070    1.4370 cd        1 2RM     -0.152100
     10 C10         2.2000    0.0030    5.4470 c         1 2RM      0.578700
     11 O11         1.3070   -0.0000    6.2910 o         1 2RM     -0.466100
     12 N12         3.6170    0.0040    5.9930 n4        1 2RM     -0.669800
     13 C13         3.6790    0.0010    7.4900 c3        1 2RM      0.165100
     14 C14         5.0960    0.0020    7.9600 ca        1 2RM     -0.131300
     15 C15         5.7530    1.2150    8.1920 ca        1 2RM     -0.128000
     16 C16         7.0710    1.2090    8.6480 ca        1 2RM     -0.016000
     17 C17         7.7440    0.0050    8.8760 ca        1 2RM     -0.304500
     18 C18         7.0740   -1.2000    8.6460 ca        1 2RM     -0.016000
     19 C19         5.7560   -1.2080    8.1900 ca        1 2RM     -0.128000
     20 S20         9.3860    0.0070    9.3690 sy        1 2RM      1.432600
     21 O21         9.9510   -1.1980    8.9440 o         1 2RM     -0.633800
     22 O22         9.9470    1.2150    8.9460 o         1 2RM     -0.633800
     23 C23         9.1920    0.0060   11.0360 ca        1 2RM     -0.337500
     24 C24         9.1360   -1.2020   11.7350 ca        1 2RM     -0.079000
     25 C25         9.0050   -1.2040   13.1350 ca        1 2RM      0.141900
     26 C26         8.9350    0.0040   13.8490 ca        1 2RM     -0.138000
     27 C27         9.0020    1.2130   13.1370 ca        1 2RM      0.141900
     28 C28         9.1330    1.2130   11.7370 ca        1 2RM     -0.079000
     29 F29         8.9400    2.3880   13.8040 f         1 2RM     -0.117900
     30 F30         8.9470   -2.3800   13.8010 f         1 2RM     -0.117900
     31 H1         -1.0540    0.0120   -0.7440 ha        1 2RM      0.186000
     32 H2          1.6470    0.0170   -0.9910 ha        1 2RM      0.184000
     33 H3          3.7970    0.0160    1.0230 ha        1 2RM      0.175000
     34 H4          4.2160    0.0110    3.4690 ha        1 2RM      0.126000
     35 H5         -0.1210    0.0020    4.1790 h4        1 2RM      0.196000
     36 H6         -1.6310    0.0050    1.9410 h4        1 2RM      0.195000
     37 H7          4.1020    0.8350    5.6350 hn        1 2RM      0.458800
     38 H8          3.1240    0.9120    7.8590 hx        1 2RM      0.119700
     39 H9          3.1280   -0.9140    7.8550 hx        1 2RM      0.119700
     40 H10         5.2350    2.1730    8.0310 ha        1 2RM      0.147000
     41 H11         7.5980    2.1680    8.8150 ha        1 2RM      0.175000
     42 H12         7.6040   -2.1570    8.8120 ha        1 2RM      0.175000
     43 H13         5.2400   -2.1680    8.0290 ha        1 2RM      0.147000
     44 H14         9.2190   -2.1630   11.1970 ha        1 2RM      0.174000
     45 H15         8.8370    0.0030   14.9460 ha        1 2RM      0.182000
     46 H16         9.2130    2.1750   11.2000 ha        1 2RM      0.174000
     47 H122        4.1050   -0.8240    5.6310 hn        1 2RM      0.458800
@<TRIPOS>BOND
     1    1    2 1   
     2    1    9 2   
     3    1   31 1   
     4    2    3 2   
     5    2   32 1   
     6    3    4 1   
     7    3    8 1   
     8    4    5 2   
     9    4   33 1   
    10    5    6 1   
    11    5   34 1   
    12    6    7 2   
    13    6   10 1   
    14    7    8 1   
    15    7   35 1   
    16    8    9 1   
    17    9   36 1   
    18   10   11 2   
    19   10   12 1   
    20   12   13 1   
    21   12   37 1   
    22   12   47 1   
    23   13   14 1   
    24   13   38 1   
    25   13   39 1   
    26   14   15 ar  
    27   14   19 ar  
    28   15   16 ar  
    29   15   40 1   
    30   16   17 ar  
    31   16   41 1   
    32   17   18 ar  
    33   17   20 1   
    34   18   19 ar  
    35   18   42 1   
    36   19   43 1   
    37   20   21 2   
    38   20   22 2   
    39   20   23 1   
    40   23   24 ar  
    41   23   28 ar  
    42   24   25 ar  
    43   24   44 1   
    44   25   26 ar  
    45   25   30 1   
    46   26   27 ar  
    47   26   45 1   
    48   27   28 ar  
    49   27   29 1   
    50   28   46 1   
@<TRIPOS>SUBSTRUCTURE
     1 2RM         1 TEMP              0 ****  ****    0 ROOT
