@<TRIPOS>MOLECULE
2RM
   47    50     1     0     0
SMALL
bcc


@<TRIPOS>ATOM
      1 C1         -0.3440   -0.0210    0.0830 cc        1 2RM     -0.113000
      2 C2          1.0910   -0.0210   -0.0510 cc        1 2RM     -0.136000
      3 C3          1.6350   -0.0140    1.2330 cd        1 2RM     -0.073300
      4 C4          2.9670   -0.0110    1.7520 cd        1 2RM     -0.053000
      5 C5          3.1820   -0.0030    3.0970 cc        1 2RM     -0.152000
      6 C6          2.0710    0.0020    4.0100 cc        1 2RM     -0.287600
      7 C7          0.7610   -0.0020    3.5080 cd        1 2RM      0.101700
      8 N8          0.5360   -0.0090    2.1740 na        1 2RM      0.006700
      9 C9         -0.6640   -0.0130    1.4400 cd        1 2RM     -0.152100
     10 C10         2.1990    0.0090    5.4490 c         1 2RM      0.578700
     11 O11         1.3060    0.0140    6.2930 o         1 2RM     -0.466100
     12 N12         3.6160    0.0120    5.9940 n4        1 2RM     -0.669800
     13 C13         3.6790    0.0200    7.4910 c3        1 2RM      0.165100
     14 C14         5.0960    0.0190    7.9610 ca        1 2RM     -0.131300
     15 C15         5.7530    1.2290    8.2010 ca        1 2RM     -0.128500
     16 C16         7.0710    1.2210    8.6560 ca        1 2RM     -0.016000
     17 C17         7.7440    0.0150    8.8750 ca        1 2RM     -0.304500
     18 C18         7.0740   -1.1880    8.6370 ca        1 2RM     -0.016000
     19 C19         5.7560   -1.1940    8.1820 ca        1 2RM     -0.128500
     20 S20         9.3870    0.0140    9.3670 sy        1 2RM      1.432600
     21 O21         9.9510   -1.1880    8.9320 o         1 2RM     -0.633800
     22 O22         9.9470    1.2240    8.9520 o         1 2RM     -0.633800
     23 C23         9.1940   -0.0000   11.0340 ca        1 2RM     -0.337500
     24 C24         9.1390   -1.2140   11.7240 ca        1 2RM     -0.079000
     25 C25         9.0080   -1.2270   13.1240 ca        1 2RM      0.141900
     26 C26         8.9390   -0.0240   13.8470 ca        1 2RM     -0.138000
     27 C27         9.0060    1.1910   13.1440 ca        1 2RM      0.141900
     28 C28         9.1360    1.2020   11.7440 ca        1 2RM     -0.079000
     29 F29         8.9450    2.3610   13.8210 f         1 2RM     -0.117900
     30 F30         8.9500   -2.4070   13.7810 f         1 2RM     -0.117900
     31 H1         -1.0570   -0.0260   -0.7420 ha        1 2RM      0.186000
     32 H2          1.6440   -0.0260   -0.9890 ha        1 2RM      0.184000
     33 H3          3.7950   -0.0150    1.0240 ha        1 2RM      0.175000
     34 H4          4.2150   -0.0010    3.4700 ha        1 2RM      0.126000
     35 H5         -0.1220    0.0020    4.1810 h4        1 2RM      0.196000
     36 H6         -1.6330   -0.0110    1.9430 h4        1 2RM      0.195000
     37 H7          4.1020   -0.8190    5.6380 hn        1 2RM      0.458800
     38 H8          3.1270    0.9360    7.8540 hx        1 2RM      0.120200
     39 H9          3.1240   -0.8900    7.8630 hx        1 2RM      0.120200
     40 H10         5.2340    2.1890    8.0470 ha        1 2RM      0.147500
     41 H11         7.5970    2.1780    8.8300 ha        1 2RM      0.175000
     42 H12         7.6040   -2.1470    8.7960 ha        1 2RM      0.175000
     43 H13         5.2400   -2.1520    8.0140 ha        1 2RM      0.147500
     44 H14         9.2200   -2.1700   11.1780 ha        1 2RM      0.174000
     45 H15         8.8420   -0.0330   14.9440 ha        1 2RM      0.182000
     46 H16         9.2160    2.1680   11.2140 ha        1 2RM      0.174000
     47 H122        4.1020    0.8400    5.6300 hn        1 2RM      0.458800
@<TRIPOS>BOND
     1    1    2 1   
     2    1    9 2   
     3    1   31 1   
     4    2    3 2   
     5    2   32 1   
     6    3    4 1   
     7    3    8 1   
     8    4    5 2   
     9    4   33 1   
    10    5    6 1   
    11    5   34 1   
    12    6    7 2   
    13    6   10 1   
    14    7    8 1   
    15    7   35 1   
    16    8    9 1   
    17    9   36 1   
    18   10   11 2   
    19   10   12 1   
    20   12   13 1   
    21   12   37 1   
    22   12   47 1   
    23   13   14 1   
    24   13   38 1   
    25   13   39 1   
    26   14   15 ar  
    27   14   19 ar  
    28   15   16 ar  
    29   15   40 1   
    30   16   17 ar  
    31   16   41 1   
    32   17   18 ar  
    33   17   20 1   
    34   18   19 ar  
    35   18   42 1   
    36   19   43 1   
    37   20   21 2   
    38   20   22 2   
    39   20   23 1   
    40   23   24 ar  
    41   23   28 ar  
    42   24   25 ar  
    43   24   44 1   
    44   25   26 ar  
    45   25   30 1   
    46   26   27 ar  
    47   26   45 1   
    48   27   28 ar  
    49   27   29 1   
    50   28   46 1   
@<TRIPOS>SUBSTRUCTURE
     1 2RM         1 TEMP              0 ****  ****    0 ROOT
