@<TRIPOS>MOLECULE
2RN
   39    42     1     0     0
SMALL
bcc


@<TRIPOS>ATOM
      1 C01        -0.0500   -0.0440    0.0620 ca        1 2RN     -0.117000
      2 C02         1.2580   -0.5250    0.0900 ca        1 2RN     -0.132000
      3 C03         1.9920   -0.5030    1.2760 ca        1 2RN     -0.105500
      4 C04         1.4110    0.0070    2.4450 ca        1 2RN     -0.128500
      5 C05         0.0980    0.4990    2.4130 ca        1 2RN     -0.105500
      6 C06        -0.6270    0.4690    1.2240 ca        1 2RN     -0.132000
      7 C07         2.1870    0.0280    3.6840 cc        1 2RN      0.466000
      8 N08         1.6010   -0.0960    4.9550 na        1 2RN     -0.300900
      9 C09         2.6300   -0.0410    5.9010 cc        1 2RN     -0.136600
     10 C10         3.8330    0.1110    5.1540 cd        1 2RN      0.361800
     11 N11         3.5370    0.1530    3.7880 nd        1 2RN     -0.646000
     12 C12         5.1930    0.1940    5.6570 ca        1 2RN     -0.070500
     13 C13         5.5890   -0.5260    6.7940 ca        1 2RN     -0.230800
     14 C14         6.9210   -0.4210    7.2290 ca        1 2RN      0.384700
     15 N15         7.8510    0.3360    6.6140 nb        1 2RN     -0.665000
     16 C16         7.4590    1.0180    5.5200 ca        1 2RN      0.384700
     17 C17         6.1520    0.9810    5.0020 ca        1 2RN     -0.230800
     18 C18         2.3800   -0.1050    7.3290 ca        1 2RN      0.015000
     19 C19         3.0850    0.7410    8.1960 ca        1 2RN     -0.193000
     20 C20         2.8240    0.6860    9.5700 ca        1 2RN      0.128100
     21 C21         1.8660   -0.2000   10.0930 ca        1 2RN     -0.150000
     22 C22         1.1770   -1.0330    9.2180 ca        1 2RN     -0.097000
     23 C23         1.4250   -0.9910    7.8460 ca        1 2RN     -0.163000
     24 O24         3.4760    1.4860   10.4790 oh        1 2RN     -0.495100
     25 H1         -0.6250   -0.0650   -0.8750 ha        1 2RN      0.136000
     26 H2          1.7180   -0.9250   -0.8260 ha        1 2RN      0.136500
     27 H3          3.0260   -0.8800    1.2930 ha        1 2RN      0.142500
     28 H4         -0.3640    0.9260    3.3160 ha        1 2RN      0.142500
     29 H5         -1.6560    0.8570    1.2020 ha        1 2RN      0.136500
     30 H6          0.6410   -0.1980    5.1540 hn        1 2RN      0.307700
     31 H8          4.8730   -1.1600    7.3350 ha        1 2RN      0.155000
     32 H9          7.2660   -0.9770    8.1190 h4        1 2RN      0.021600
     33 H10         8.2390    1.6270    5.0300 h4        1 2RN      0.021600
     34 H11         5.8960    1.5530    4.0990 ha        1 2RN      0.155000
     35 H12         3.8400    1.4330    7.7950 ha        1 2RN      0.151000
     36 H13         1.6790   -0.2220   11.1760 ha        1 2RN      0.155000
     37 H14         0.4270   -1.7350    9.6140 ha        1 2RN      0.138000
     38 H15         0.8790   -1.6710    7.1760 ha        1 2RN      0.134000
     39 H16         4.1160    2.0300    9.9950 ho        1 2RN      0.424000
@<TRIPOS>BOND
     1    1    2 ar  
     2    1    6 ar  
     3    1   25 1   
     4    2    3 ar  
     5    2   26 1   
     6    3    4 ar  
     7    3   27 1   
     8    4    5 ar  
     9    4    7 1   
    10    5    6 ar  
    11    5   28 1   
    12    6   29 1   
    13    7    8 1   
    14    7   11 2   
    15    8    9 1   
    16    8   30 1   
    17    9   10 2   
    18    9   18 1   
    19   10   11 1   
    20   10   12 1   
    21   12   13 ar  
    22   12   17 ar  
    23   13   14 ar  
    24   13   31 1   
    25   14   15 ar  
    26   14   32 1   
    27   15   16 ar  
    28   16   17 ar  
    29   16   33 1   
    30   17   34 1   
    31   18   19 ar  
    32   18   23 ar  
    33   19   20 ar  
    34   19   35 1   
    35   20   21 ar  
    36   20   24 1   
    37   21   22 ar  
    38   21   36 1   
    39   22   23 ar  
    40   22   37 1   
    41   23   38 1   
    42   24   39 1   
@<TRIPOS>SUBSTRUCTURE
     1 2RN         1 TEMP              0 ****  ****    0 ROOT
