@<TRIPOS>MOLECULE
2RO
   42    43     1     0     0
SMALL
bcc


@<TRIPOS>ATOM
      1 OAD         1.0650    2.2110   -0.5480 o         1 2RO     -0.793300
      2 CAP         2.2390    2.2030   -0.1090 c         1 2RO      0.921800
      3 OAG         2.9090    3.2010    0.2590 o         1 2RO     -0.793300
      4 CAS         2.9690    0.8260   -0.0280 cc        1 2RO      0.043400
      5 NAN         4.3280    0.8660   -0.3040 n         1 2RO     -0.436100
      6 CAU         5.1410   -0.2700   -0.2100 c         1 2RO      0.790500
      7 OAE         6.3770   -0.2120   -0.4290 o         1 2RO     -0.697500
      8 NAO         4.5300   -1.4890    0.1190 n         1 2RO     -0.592500
      9 CAV         3.1520   -1.5920    0.4000 c         1 2RO      0.716700
     10 OAF         2.7210   -2.7230    0.7090 o         1 2RO     -0.668500
     11 CAT         2.3620   -0.3600    0.3060 cd        1 2RO     -0.291400
     12 CAM         0.9100   -0.4680    0.5920 c3        1 2RO      0.008800
     13 CAL         0.1150   -0.7760   -0.6700 c3        1 2RO     -0.038100
     14 CAQ        -1.3450   -0.5960   -0.4510 ca        1 2RO     -0.058300
     15 CAH        -1.8650    0.7000   -0.3140 ca        1 2RO     -0.129500
     16 CAJ        -3.2280    0.8900   -0.1220 ca        1 2RO     -0.138000
     17 CAR        -4.1110   -0.2020   -0.0620 ca        1 2RO     -0.092300
     18 CAW        -5.5800    0.0540    0.1460 c3        1 2RO     -0.002700
     19 CAB        -5.7850    0.7870    1.4690 c3        1 2RO     -0.082767
     20 CAC        -6.1130    0.9180   -0.9940 c3        1 2RO     -0.082767
     21 CAA        -6.3950   -1.2330    0.1870 c3        1 2RO     -0.082767
     22 CAK        -3.5860   -1.4890   -0.1990 ca        1 2RO     -0.138000
     23 CAI        -2.2170   -1.6840   -0.3910 ca        1 2RO     -0.129500
     24 H2          4.7630    1.7580   -0.4250 hn        1 2RO      0.366500
     25 H3          5.1110   -2.2930    0.1740 hn        1 2RO      0.330500
     26 H4          0.7380   -1.2760    1.3520 hc        1 2RO      0.058200
     27 H5          0.5450    0.5080    1.0180 hc        1 2RO      0.058200
     28 H6          0.4480   -0.0630   -1.4740 hc        1 2RO      0.058200
     29 H7          0.3390   -1.8210   -1.0080 hc        1 2RO      0.058200
     30 H8         -1.1680    1.5590   -0.3600 ha        1 2RO      0.157000
     31 H9         -3.6170    1.9140   -0.0160 ha        1 2RO      0.119000
     32 H10        -5.2440    1.7640    1.4640 hc        1 2RO      0.031700
     33 H11        -6.8720    0.9820    1.6350 hc        1 2RO      0.031700
     34 H12        -5.3970    0.1710    2.3150 hc        1 2RO      0.031700
     35 H13        -5.9690    0.3980   -1.9700 hc        1 2RO      0.031700
     36 H14        -7.2020    1.1150   -0.8490 hc        1 2RO      0.031700
     37 H15        -5.5750    1.8950   -1.0290 hc        1 2RO      0.031700
     38 H16        -6.0560   -1.8860    1.0260 hc        1 2RO      0.031700
     39 H17        -7.4750   -0.9910    0.3430 hc        1 2RO      0.031700
     40 H18        -6.2950   -1.7920   -0.7740 hc        1 2RO      0.031700
     41 H19        -4.2390   -2.3720   -0.1570 ha        1 2RO      0.119000
     42 H20        -1.8230   -2.7060   -0.4930 ha        1 2RO      0.157000
@<TRIPOS>BOND
     1    1    2 1   
     2    2    3 1   
     3    2    4 1   
     4    4    5 1   
     5    4   11 2   
     6    5    6 1   
     7    5   24 1   
     8    6    7 2   
     9    6    8 1   
    10    8    9 1   
    11    8   25 1   
    12    9   10 2   
    13    9   11 1   
    14   11   12 1   
    15   12   13 1   
    16   12   26 1   
    17   12   27 1   
    18   13   14 1   
    19   13   28 1   
    20   13   29 1   
    21   14   15 ar  
    22   14   23 ar  
    23   15   16 ar  
    24   15   30 1   
    25   16   17 ar  
    26   16   31 1   
    27   17   18 1   
    28   17   22 ar  
    29   18   19 1   
    30   18   20 1   
    31   18   21 1   
    32   19   32 1   
    33   19   33 1   
    34   19   34 1   
    35   20   35 1   
    36   20   36 1   
    37   20   37 1   
    38   21   38 1   
    39   21   39 1   
    40   21   40 1   
    41   22   23 ar  
    42   22   41 1   
    43   23   42 1   
@<TRIPOS>SUBSTRUCTURE
     1 2RO         1 TEMP              0 ****  ****    0 ROOT
