@<TRIPOS>MOLECULE
2RO
   42    43     1     0     0
SMALL
bcc


@<TRIPOS>ATOM
      1 OAD        -0.1220    0.8180    0.0230 o         1 2RO     -0.793300
      2 CAP         1.0150    0.2970    0.1070 c         1 2RO      0.921800
      3 OAG         1.5780   -0.1120    1.1550 o         1 2RO     -0.793300
      4 CAS         1.8430    0.1550   -1.2080 cc        1 2RO      0.043400
      5 NAN         3.2100    0.3360   -1.0620 n         1 2RO     -0.436100
      6 CAU         4.1000    0.1770   -2.1310 c         1 2RO      0.790500
      7 OAE         5.3400    0.3090   -1.9780 o         1 2RO     -0.697500
      8 NAO         3.5650   -0.1160   -3.3940 n         1 2RO     -0.592500
      9 CAV         2.1820   -0.3000   -3.6050 c         1 2RO      0.716700
     10 OAF         1.8200   -0.5850   -4.7650 o         1 2RO     -0.668500
     11 CAT         1.3070   -0.1430   -2.4380 cd        1 2RO     -0.291400
     12 CAM        -0.1480   -0.3270   -2.6590 c3        1 2RO      0.008800
     13 CAL        -0.8250    0.9860   -3.0300 c3        1 2RO     -0.038100
     14 CAQ        -2.3070    0.8710   -2.9640 ca        1 2RO     -0.058300
     15 CAH        -2.9350    0.7800   -1.7120 ca        1 2RO     -0.129500
     16 CAJ        -4.3190    0.6860   -1.6290 ca        1 2RO     -0.138000
     17 CAR        -5.1160    0.6810   -2.7860 ca        1 2RO     -0.092300
     18 CAW        -6.6110    0.5780   -2.6460 c3        1 2RO     -0.002700
     19 CAB        -6.9660   -0.7220   -1.9300 c3        1 2RO     -0.082767
     20 CAC        -7.1280    1.7590   -1.8280 c3        1 2RO     -0.082767
     21 CAA        -7.3250    0.5870   -3.9930 c3        1 2RO     -0.082767
     22 CAK        -4.4840    0.7720   -4.0290 ca        1 2RO     -0.138000
     23 CAI        -3.0940    0.8660   -4.1170 ca        1 2RO     -0.129500
     24 H2          3.5820    0.4310   -0.1390 hn        1 2RO      0.366500
     25 H3          4.2010   -0.2170   -4.1510 hn        1 2RO      0.330500
     26 H4         -0.6180   -0.7190   -1.7140 hc        1 2RO      0.058200
     27 H5         -0.3100   -1.0770   -3.4780 hc        1 2RO      0.058200
     28 H6         -0.4930    1.7700   -2.2930 hc        1 2RO      0.058200
     29 H7         -0.4980    1.3010   -4.0540 hc        1 2RO      0.058200
     30 H8         -2.3050    0.7830   -0.8010 ha        1 2RO      0.157000
     31 H9         -4.7920    0.6140   -0.6390 ha        1 2RO      0.119000
     32 H10        -6.5920   -1.5970   -2.5130 hc        1 2RO      0.031700
     33 H11        -8.0730   -0.8100   -1.8200 hc        1 2RO      0.031700
     34 H12        -6.5040   -0.7490   -0.9140 hc        1 2RO      0.031700
     35 H13        -8.2370    1.6920   -1.7160 hc        1 2RO      0.031700
     36 H14        -6.8750    2.7190   -2.3360 hc        1 2RO      0.031700
     37 H15        -6.6670    1.7620   -0.8110 hc        1 2RO      0.031700
     38 H16        -7.1130    1.5350   -4.5430 hc        1 2RO      0.031700
     39 H17        -8.4280    0.5090   -3.8360 hc        1 2RO      0.031700
     40 H18        -6.9960   -0.2780   -4.6170 hc        1 2RO      0.031700
     41 H19        -5.0670    0.7710   -4.9610 ha        1 2RO      0.119000
     42 H20        -2.6150    0.9330   -5.1050 ha        1 2RO      0.157000
@<TRIPOS>BOND
     1    1    2 1   
     2    2    3 1   
     3    2    4 1   
     4    4    5 1   
     5    4   11 2   
     6    5    6 1   
     7    5   24 1   
     8    6    7 2   
     9    6    8 1   
    10    8    9 1   
    11    8   25 1   
    12    9   10 2   
    13    9   11 1   
    14   11   12 1   
    15   12   13 1   
    16   12   26 1   
    17   12   27 1   
    18   13   14 1   
    19   13   28 1   
    20   13   29 1   
    21   14   15 ar  
    22   14   23 ar  
    23   15   16 ar  
    24   15   30 1   
    25   16   17 ar  
    26   16   31 1   
    27   17   18 1   
    28   17   22 ar  
    29   18   19 1   
    30   18   20 1   
    31   18   21 1   
    32   19   32 1   
    33   19   33 1   
    34   19   34 1   
    35   20   35 1   
    36   20   36 1   
    37   20   37 1   
    38   21   38 1   
    39   21   39 1   
    40   21   40 1   
    41   22   23 ar  
    42   22   41 1   
    43   23   42 1   
@<TRIPOS>SUBSTRUCTURE
     1 2RO         1 TEMP              0 ****  ****    0 ROOT
