@<TRIPOS>MOLECULE
2RO
   42    43     1     0     0
SMALL
bcc


@<TRIPOS>ATOM
      1 OAD        -0.1190    0.8130    0.0210 o         1 2RO     -0.793300
      2 CAP         1.0180    0.2900    0.1030 c         1 2RO      0.921800
      3 OAG         1.5810   -0.1200    1.1490 o         1 2RO     -0.793300
      4 CAS         1.8440    0.1490   -1.2130 cc        1 2RO      0.043400
      5 NAN         3.2120    0.3290   -1.0690 n         1 2RO     -0.436100
      6 CAU         4.1000    0.1700   -2.1390 c         1 2RO      0.790500
      7 OAE         5.3410    0.3010   -1.9870 o         1 2RO     -0.697500
      8 NAO         3.5630   -0.1210   -3.4020 n         1 2RO     -0.592500
      9 CAV         2.1800   -0.3030   -3.6110 c         1 2RO      0.716700
     10 OAF         1.8160   -0.5870   -4.7710 o         1 2RO     -0.668500
     11 CAT         1.3070   -0.1470   -2.4420 cd        1 2RO     -0.291400
     12 CAM        -0.1490   -0.3290   -2.6620 c3        1 2RO      0.008800
     13 CAL        -0.8250    0.9850   -3.0310 c3        1 2RO     -0.038100
     14 CAQ        -2.3070    0.8720   -2.9640 ca        1 2RO     -0.058300
     15 CAH        -2.9340    0.7800   -1.7110 ca        1 2RO     -0.129500
     16 CAJ        -4.3180    0.6880   -1.6270 ca        1 2RO     -0.138000
     17 CAR        -5.1160    0.6840   -2.7830 ca        1 2RO     -0.092300
     18 CAW        -6.6110    0.5830   -2.6410 c3        1 2RO     -0.002700
     19 CAB        -6.9660   -0.7170   -1.9240 c3        1 2RO     -0.082767
     20 CAC        -7.1250    1.7640   -1.8210 c3        1 2RO     -0.082767
     21 CAA        -7.3270    0.5930   -3.9870 c3        1 2RO     -0.082767
     22 CAK        -4.4850    0.7750   -4.0260 ca        1 2RO     -0.138000
     23 CAI        -3.0950    0.8670   -4.1160 ca        1 2RO     -0.129500
     24 H2          3.5850    0.4220   -0.1460 hn        1 2RO      0.366500
     25 H3          4.1980   -0.2220   -4.1600 hn        1 2RO      0.330500
     26 H4         -0.3130   -1.0790   -3.4810 hc        1 2RO      0.058200
     27 H5         -0.6180   -0.7210   -1.7170 hc        1 2RO      0.058200
     28 H6         -0.4910    1.7680   -2.2950 hc        1 2RO      0.058200
     29 H7         -0.4990    1.3000   -4.0560 hc        1 2RO      0.058200
     30 H8         -2.3030    0.7830   -0.8010 ha        1 2RO      0.157000
     31 H9         -4.7900    0.6170   -0.6360 ha        1 2RO      0.119000
     32 H10        -6.5030   -0.7450   -0.9090 hc        1 2RO      0.031700
     33 H11        -8.0740   -0.8030   -1.8130 hc        1 2RO      0.031700
     34 H12        -6.5940   -1.5920   -2.5090 hc        1 2RO      0.031700
     35 H13        -8.2340    1.6980   -1.7090 hc        1 2RO      0.031700
     36 H14        -6.8720    2.7240   -2.3300 hc        1 2RO      0.031700
     37 H15        -6.6630    1.7660   -0.8060 hc        1 2RO      0.031700
     38 H16        -7.1150    1.5410   -4.5370 hc        1 2RO      0.031700
     39 H17        -8.4300    0.5160   -3.8290 hc        1 2RO      0.031700
     40 H18        -6.9990   -0.2720   -4.6110 hc        1 2RO      0.031700
     41 H19        -5.0700    0.7740   -4.9570 ha        1 2RO      0.119000
     42 H20        -2.6180    0.9340   -5.1050 ha        1 2RO      0.157000
@<TRIPOS>BOND
     1    1    2 1   
     2    2    3 1   
     3    2    4 1   
     4    4    5 1   
     5    4   11 2   
     6    5    6 1   
     7    5   24 1   
     8    6    7 2   
     9    6    8 1   
    10    8    9 1   
    11    8   25 1   
    12    9   10 2   
    13    9   11 1   
    14   11   12 1   
    15   12   13 1   
    16   12   26 1   
    17   12   27 1   
    18   13   14 1   
    19   13   28 1   
    20   13   29 1   
    21   14   15 ar  
    22   14   23 ar  
    23   15   16 ar  
    24   15   30 1   
    25   16   17 ar  
    26   16   31 1   
    27   17   18 1   
    28   17   22 ar  
    29   18   19 1   
    30   18   20 1   
    31   18   21 1   
    32   19   32 1   
    33   19   33 1   
    34   19   34 1   
    35   20   35 1   
    36   20   36 1   
    37   20   37 1   
    38   21   38 1   
    39   21   39 1   
    40   21   40 1   
    41   22   23 ar  
    42   22   41 1   
    43   23   42 1   
@<TRIPOS>SUBSTRUCTURE
     1 2RO         1 TEMP              0 ****  ****    0 ROOT
