@<TRIPOS>MOLECULE
2RO
   42    36     1     0     0
SMALL
bcc


@<TRIPOS>ATOM
      1 OAD         2.8400    1.1580    3.3070 o         1 2RO     -0.528000
      2 CAP         3.2760    1.8960    2.3900 c1        1 2RO      0.372000
      3 OAG         3.0520    3.1400    2.4230 o         1 2RO     -0.528000
      4 CAS         4.1880    1.3420    1.3720 c1        1 2RO      0.060000
      5 NAN         5.5830    1.3350    1.6030 n3        1 2RO     -0.280000
      6 CAU         6.4890    0.9140    0.5550 c1        1 2RO      0.381000
      7 OAE         7.7030    0.9600    0.7380 o         1 2RO     -0.422000
      8 NAO         5.9640    0.5210   -0.7500 n2        1 2RO     -0.372000
      9 CAV         4.5550    0.4840   -0.9710 c1        1 2RO      0.355000
     10 OAF         4.1240    0.1160   -2.0210 o         1 2RO     -0.393000
     11 CAT         3.6540    0.8860    0.0740 c1        1 2RO     -0.268000
     12 CAM         2.1390    0.9200   -0.1880 c2        1 2RO     -0.074000
     13 CAL         1.6020   -0.5140   -0.2770 c3        1 2RO     -0.124000
     14 CAQ         0.0870   -0.4830   -0.3070 c2        1 2RO     -0.051000
     15 CAH        -0.6230   -0.4740    0.8770 c2        1 2RO     -0.118000
     16 CAJ        -2.0160   -0.5540    0.8570 c1        1 2RO     -0.136000
     17 CAR        -2.6860   -0.6420   -0.3500 c1        1 2RO     -0.085000
     18 CAW        -4.2370   -0.7530   -0.3720 c2        1 2RO     -0.010000
     19 CAB        -4.6730   -1.9450    0.4660 c3        1 2RO     -0.200667
     20 CAC        -4.8460    0.5250    0.2030 c3        1 2RO     -0.200667
     21 CAA        -4.7040   -0.9400   -1.7790 c3        1 2RO     -0.200667
     22 CAK        -1.9700   -0.6510   -1.5440 c1        1 2RO     -0.140000
     23 CAI        -0.5860   -0.5720   -1.5220 c1        1 2RO     -0.141000
     24 H2          5.9230    1.6620    2.4090 hn        1 2RO      0.280000
     25 H3          6.5370    0.2560   -1.4110 hn        1 2RO      0.244000
     26 H4          1.6930    1.3910    0.5460 ha        1 2RO      0.097500
     27 H5          1.9610    1.3950   -1.0410 ha        1 2RO      0.097500
     28 H6          1.9390   -0.9440   -1.1050 hc        1 2RO      0.097500
     29 H7          1.8910   -1.0050    0.4730 hc        1 2RO      0.097500
     30 H8         -0.1420   -0.4110    1.7410 ha        1 2RO      0.189000
     31 H9         -2.5170   -0.5480    1.6940 ha        1 2RO      0.122000
     32 H10        -5.6320   -2.0440    0.4080 hc        1 2RO      0.071000
     33 H11        -4.2330   -2.7720    0.1220 hc        1 2RO      0.071000
     34 H12        -4.4130   -1.8000    1.4070 hc        1 2RO      0.071000
     35 H13        -4.7280    0.5340    1.1820 hc        1 2RO      0.071000
     36 H14        -5.8150    0.5580   -0.0150 hc        1 2RO      0.071000
     37 H15        -4.4070    1.2870   -0.1790 hc        1 2RO      0.071000
     38 H16        -4.3810   -0.1940   -2.3360 hc        1 2RO      0.071000
     39 H17        -5.6910   -0.9630   -1.7980 hc        1 2RO      0.071000
     40 H18        -4.3530   -1.7810   -2.1270 hc        1 2RO      0.071000
     41 H19        -2.4520   -0.7150   -2.4160 ha        1 2RO      0.116000
     42 H20        -0.0950   -0.5780   -2.3400 ha        1 2RO      0.124000
@<TRIPOS>BOND
     1    1    2 1   
     2    2    3 1   
     3    4    5 1   
     4    4   11 1   
     5    5    6 1   
     6    5   24 1   
     7    6    7 1   
     8    8    9 1   
     9    8   25 1   
    10    9   10 1   
    11   12   13 1   
    12   12   26 1   
    13   12   27 1   
    14   13   14 1   
    15   13   28 1   
    16   13   29 1   
    17   14   15 1   
    18   14   23 1   
    19   15   16 1   
    20   15   30 1   
    21   16   31 1   
    22   17   22 1   
    23   18   19 1   
    24   18   20 1   
    25   18   21 1   
    26   19   32 1   
    27   19   33 1   
    28   19   34 1   
    29   20   35 1   
    30   20   36 1   
    31   20   37 1   
    32   21   38 1   
    33   21   39 1   
    34   21   40 1   
    35   22   41 1   
    36   23   42 1   
@<TRIPOS>SUBSTRUCTURE
     1 2RO         1 TEMP              0 ****  ****    0 ROOT
