@<TRIPOS>MOLECULE
2RQ
   57    61     1     0     0
SMALL
bcc


@<TRIPOS>ATOM
      1 C01         0.5080    3.4050    0.7250 c3        1 2RQ      0.113700
      2 O02         1.3060    2.3610    0.1750 os        1 2RQ     -0.315900
      3 C03         1.3430    1.1860    0.8930 ca        1 2RQ      0.135100
      4 C04         0.5790    0.9240    2.0380 ca        1 2RQ     -0.199000
      5 C05         0.6930   -0.3100    2.6750 ca        1 2RQ     -0.090000
      6 C06         1.5580   -1.2890    2.1890 ca        1 2RQ     -0.157000
      7 C07         2.3300   -1.0410    1.0540 ca        1 2RQ     -0.086000
      8 C08         2.2150    0.1890    0.4030 ca        1 2RQ      0.064100
      9 O09         2.8820    0.3530   -0.8130 os        1 2RQ     -0.319400
     10 C10         3.9940    1.1910   -0.8080 ca        1 2RQ      0.851300
     11 N11         4.4190    1.7890    0.3560 nb        1 2RQ     -0.718000
     12 C12         5.4940    2.5860    0.2250 ca        1 2RQ      0.453200
     13 C13         6.1500    2.7950   -1.0020 ca        1 2RQ     -0.387600
     14 C14         5.6430    2.1090   -2.1290 ca        1 2RQ      0.541800
     15 N15         4.5490    1.3070   -2.0610 nb        1 2RQ     -0.677000
     16 C16         6.3080    2.2630   -3.4250 cc        1 2RQ     -0.268100
     17 C17         7.5110    1.6910   -3.9130 cd        1 2RQ      0.383800
     18 N18         7.7170    2.1040   -5.2390 nd        1 2RQ     -0.662000
     19 C19         6.6700    2.8930   -5.5500 cc        1 2RQ      0.406400
     20 N20         5.7790    3.0250   -4.4790 na        1 2RQ     -0.179900
     21 C21         4.5170    3.7320   -4.4920 c3        1 2RQ      0.050000
     22 C22         3.4520    3.0260   -5.3490 c3        1 2RQ     -0.091400
     23 C23         2.1350    3.7960   -5.2770 c3        1 2RQ      0.163800
     24 N24         2.2690    5.1930   -5.6410 n7        1 2RQ     -0.824200
     25 C25         3.3060    5.8880   -4.9050 c3        1 2RQ      0.163800
     26 C26         4.6610    5.1860   -4.9740 c3        1 2RQ     -0.091400
     27 C27         8.4170    0.7750   -3.2380 ca        1 2RQ     -0.117500
     28 C28         8.8320    1.0020   -1.9200 ca        1 2RQ     -0.086000
     29 C29         9.6970    0.1180   -1.2840 ca        1 2RQ     -0.170000
     30 C30        10.1650   -1.0130   -1.9760 ca        1 2RQ      0.125900
     31 C31         9.7620   -1.2450   -3.3050 ca        1 2RQ     -0.170000
     32 C32         8.8960   -0.3510   -3.9250 ca        1 2RQ     -0.086000
     33 F33        11.0070   -1.8800   -1.3640 f         1 2RQ     -0.142900
     34 H011        0.8570    3.6720    1.7510 h1        1 2RQ      0.046033
     35 H012       -0.5690    3.1070    0.7400 h1        1 2RQ      0.046033
     36 H013        0.6720    4.2560    0.0160 h1        1 2RQ      0.046033
     37 H041       -0.1070    1.6840    2.4380 ha        1 2RQ      0.141000
     38 H051        0.0900   -0.5110    3.5740 ha        1 2RQ      0.136000
     39 H061        1.6390   -2.2590    2.7010 ha        1 2RQ      0.140000
     40 H071        3.0190   -1.8020    0.6580 ha        1 2RQ      0.154000
     41 H121        5.8420    3.0780    1.1520 h4        1 2RQ      0.032100
     42 H131        7.0130    3.4660   -1.0830 ha        1 2RQ      0.164000
     43 H191        6.5100    3.3920   -6.5130 h5        1 2RQ      0.066100
     44 H211        4.1420    3.7560   -3.4220 h1        1 2RQ      0.073700
     45 H222        3.8010    2.9590   -6.4110 hc        1 2RQ      0.062950
     46 H221        3.2780    1.9860   -4.9700 hc        1 2RQ      0.062950
     47 H231        1.7090    3.6670   -4.2370 h1        1 2RQ      0.034950
     48 H232        1.4080    3.3300   -6.0020 h1        1 2RQ      0.034950
     49 H241        1.3910    5.6650   -5.5280 hn        1 2RQ      0.367800
     50 H252        3.0370    6.0240   -3.8150 h1        1 2RQ      0.034950
     51 H251        3.4100    6.9140   -5.3590 h1        1 2RQ      0.034950
     52 H262        5.0480    5.2060   -6.0250 hc        1 2RQ      0.062950
     53 H261        5.3850    5.7440   -4.3260 hc        1 2RQ      0.062950
     54 H281        8.4740    1.8900   -1.3780 ha        1 2RQ      0.144500
     55 H291       10.0210    0.2960   -0.2490 ha        1 2RQ      0.147500
     56 H311       10.1360   -2.1290   -3.8410 ha        1 2RQ      0.147500
     57 H321        8.5860   -0.5290   -4.9670 ha        1 2RQ      0.144500
@<TRIPOS>BOND
     1    1    2 1   
     2    1   34 1   
     3    1   35 1   
     4    1   36 1   
     5    2    3 1   
     6    3    4 ar  
     7    3    8 ar  
     8    4    5 ar  
     9    4   37 1   
    10    5    6 ar  
    11    5   38 1   
    12    6    7 ar  
    13    6   39 1   
    14    7    8 ar  
    15    7   40 1   
    16    8    9 1   
    17    9   10 1   
    18   10   11 ar  
    19   10   15 ar  
    20   11   12 ar  
    21   12   13 ar  
    22   12   41 1   
    23   13   14 ar  
    24   13   42 1   
    25   14   15 ar  
    26   14   16 1   
    27   16   17 2   
    28   16   20 1   
    29   17   18 1   
    30   17   27 1   
    31   18   19 2   
    32   19   20 1   
    33   19   43 1   
    34   20   21 1   
    35   21   22 1   
    36   21   26 1   
    37   21   44 1   
    38   22   23 1   
    39   22   45 1   
    40   22   46 1   
    41   23   24 1   
    42   23   47 1   
    43   23   48 1   
    44   24   25 1   
    45   24   49 1   
    46   25   26 1   
    47   25   50 1   
    48   25   51 1   
    49   26   52 1   
    50   26   53 1   
    51   27   28 ar  
    52   27   32 ar  
    53   28   29 ar  
    54   28   54 1   
    55   29   30 ar  
    56   29   55 1   
    57   30   31 ar  
    58   30   33 1   
    59   31   32 ar  
    60   31   56 1   
    61   32   57 1   
@<TRIPOS>SUBSTRUCTURE
     1 2RQ         1 TEMP              0 ****  ****    0 ROOT
