@<TRIPOS>MOLECULE
2RQ
   57    61     1     0     0
SMALL
bcc


@<TRIPOS>ATOM
      1 C01         0.5530    3.4740    0.7520 c3        1 2RQ      0.113700
      2 O02         1.3390    2.4170    0.2100 os        1 2RQ     -0.315900
      3 C03         1.3790    1.2540    0.9490 ca        1 2RQ      0.135100
      4 C04         0.6290    1.0170    2.1080 ca        1 2RQ     -0.199000
      5 C05         0.7460   -0.2070    2.7650 ca        1 2RQ     -0.090000
      6 C06         1.6010   -1.1980    2.2850 ca        1 2RQ     -0.157000
      7 C07         2.3590   -0.9740    1.1360 ca        1 2RQ     -0.086000
      8 C08         2.2410    0.2450    0.4650 ca        1 2RQ      0.064100
      9 O09         2.8930    0.3850   -0.7620 os        1 2RQ     -0.319400
     10 C10         4.0080    1.2180   -0.7860 ca        1 2RQ      0.851300
     11 N11         4.4510    1.8350    0.3620 nb        1 2RQ     -0.718000
     12 C12         5.5270    2.6240    0.2030 ca        1 2RQ      0.453200
     13 C13         6.1680    2.8090   -1.0360 ca        1 2RQ     -0.387600
     14 C14         5.6440    2.1060   -2.1440 ca        1 2RQ      0.542800
     15 N15         4.5480    1.3090   -2.0480 nb        1 2RQ     -0.677000
     16 C16         6.2920    2.2340   -3.4510 cc        1 2RQ     -0.268100
     17 C17         7.4880    1.6490   -3.9440 cd        1 2RQ      0.383800
     18 N18         7.6770    2.0360   -5.2800 nd        1 2RQ     -0.662000
     19 C19         6.6280    2.8230   -5.5920 cc        1 2RQ      0.406400
     20 N20         5.7520    2.9780   -4.5120 na        1 2RQ     -0.179900
     21 C21         4.4920    3.6880   -4.5210 c3        1 2RQ      0.050000
     22 C22         3.4130    2.9670   -5.3480 c3        1 2RQ     -0.091400
     23 C23         2.0990    3.7420   -5.2730 c3        1 2RQ      0.163800
     24 N24         2.2310    5.1310   -5.6680 n3        1 2RQ     -0.824200
     25 C25         3.2800    5.8380   -4.9620 c3        1 2RQ      0.163800
     26 C26         4.6330    5.1310   -5.0360 c3        1 2RQ     -0.091400
     27 C27         8.3990    0.7430   -3.2640 ca        1 2RQ     -0.117500
     28 C28         8.8330    0.9930   -1.9560 ca        1 2RQ     -0.086000
     29 C29         9.7040    0.1180   -1.3150 ca        1 2RQ     -0.170500
     30 C30        10.1580   -1.0280   -1.9920 ca        1 2RQ      0.125900
     31 C31         9.7360   -1.2830   -3.3100 ca        1 2RQ     -0.170500
     32 C32         8.8650   -0.3990   -3.9360 ca        1 2RQ     -0.086000
     33 F33        11.0050   -1.8860   -1.3750 f         1 2RQ     -0.142900
     34 H011       -0.5250    3.1830    0.7870 h1        1 2RQ      0.046033
     35 H012        0.9170    3.7580    1.7690 h1        1 2RQ      0.046033
     36 H013        0.7120    4.3120    0.0270 h1        1 2RQ      0.046033
     37 H041       -0.0480    1.7860    2.5030 ha        1 2RQ      0.141000
     38 H051        0.1540   -0.3880    3.6750 ha        1 2RQ      0.136000
     39 H061        1.6840   -2.1590    2.8130 ha        1 2RQ      0.140000
     40 H071        3.0390   -1.7450    0.7450 ha        1 2RQ      0.154000
     41 H121        5.8890    3.1310    1.1160 h4        1 2RQ      0.032100
     42 H131        7.0320    3.4750   -1.1400 ha        1 2RQ      0.164000
     43 H191        6.4580    3.3050   -6.5620 h5        1 2RQ      0.066100
     44 H211        4.1330    3.7360   -3.4480 h1        1 2RQ      0.073700
     45 H222        3.7460    2.8760   -6.4140 hc        1 2RQ      0.062950
     46 H221        3.2420    1.9360   -4.9440 hc        1 2RQ      0.062950
     47 H231        1.3610    3.2640   -5.9770 h1        1 2RQ      0.034950
     48 H232        1.6880    3.6360   -4.2250 h1        1 2RQ      0.034950
     49 H241        1.3570    5.6070   -5.5530 hn        1 2RQ      0.367800
     50 H252        3.0280    5.9980   -3.8720 h1        1 2RQ      0.034950
     51 H251        3.3810    6.8540   -5.4400 h1        1 2RQ      0.034950
     52 H262        5.0040    5.1270   -6.0930 hc        1 2RQ      0.062950
     53 H261        5.3670    5.7000   -4.4110 hc        1 2RQ      0.062950
     54 H281        8.4860    1.8930   -1.4260 ha        1 2RQ      0.144500
     55 H291       10.0430    0.3150   -0.2880 ha        1 2RQ      0.147500
     56 H311       10.0990   -2.1790   -3.8340 ha        1 2RQ      0.147500
     57 H321        8.5400   -0.5960   -4.9690 ha        1 2RQ      0.144500
@<TRIPOS>BOND
     1    1    2 1   
     2    1   34 1   
     3    1   35 1   
     4    1   36 1   
     5    2    3 1   
     6    3    4 ar  
     7    3    8 ar  
     8    4    5 ar  
     9    4   37 1   
    10    5    6 ar  
    11    5   38 1   
    12    6    7 ar  
    13    6   39 1   
    14    7    8 ar  
    15    7   40 1   
    16    8    9 1   
    17    9   10 1   
    18   10   11 ar  
    19   10   15 ar  
    20   11   12 ar  
    21   12   13 ar  
    22   12   41 1   
    23   13   14 ar  
    24   13   42 1   
    25   14   15 ar  
    26   14   16 1   
    27   16   17 2   
    28   16   20 1   
    29   17   18 1   
    30   17   27 1   
    31   18   19 2   
    32   19   20 1   
    33   19   43 1   
    34   20   21 1   
    35   21   22 1   
    36   21   26 1   
    37   21   44 1   
    38   22   23 1   
    39   22   45 1   
    40   22   46 1   
    41   23   24 1   
    42   23   47 1   
    43   23   48 1   
    44   24   25 1   
    45   24   49 1   
    46   25   26 1   
    47   25   50 1   
    48   25   51 1   
    49   26   52 1   
    50   26   53 1   
    51   27   28 ar  
    52   27   32 ar  
    53   28   29 ar  
    54   28   54 1   
    55   29   30 ar  
    56   29   55 1   
    57   30   31 ar  
    58   30   33 1   
    59   31   32 ar  
    60   31   56 1   
    61   32   57 1   
@<TRIPOS>SUBSTRUCTURE
     1 2RQ         1 TEMP              0 ****  ****    0 ROOT
