@<TRIPOS>MOLECULE
2RQ
   57    61     1     0     0
SMALL
bcc


@<TRIPOS>ATOM
      1 C01         0.5100    3.3730    0.7440 c3        1 2RQ      0.113700
      2 O02         1.3110    2.3350    0.1860 os        1 2RQ     -0.315900
      3 C03         1.3550    1.1560    0.8990 ca        1 2RQ      0.135100
      4 C04         0.5960    0.8860    2.0450 ca        1 2RQ     -0.199000
      5 C05         0.7170   -0.3510    2.6760 ca        1 2RQ     -0.090000
      6 C06         1.5860   -1.3230    2.1830 ca        1 2RQ     -0.157000
      7 C07         2.3530   -1.0670    1.0470 ca        1 2RQ     -0.086000
      8 C08         2.2310    0.1660    0.4020 ca        1 2RQ      0.064100
      9 O09         2.8930    0.3390   -0.8160 os        1 2RQ     -0.319400
     10 C10         4.0000    1.1810   -0.8110 ca        1 2RQ      0.851300
     11 N11         4.4270    1.7770    0.3550 nb        1 2RQ     -0.718000
     12 C12         5.4980    2.5790    0.2240 ca        1 2RQ      0.453200
     13 C13         6.1490    2.7970   -1.0040 ca        1 2RQ     -0.387600
     14 C14         5.6420    2.1130   -2.1320 ca        1 2RQ      0.541800
     15 N15         4.5520    1.3050   -2.0650 nb        1 2RQ     -0.677000
     16 C16         6.3020    2.2750   -3.4300 cc        1 2RQ     -0.268100
     17 C17         7.5060    1.7090   -3.9250 cd        1 2RQ      0.383800
     18 N18         7.7060    2.1300   -5.2480 nd        1 2RQ     -0.662000
     19 C19         6.6560    2.9180   -5.5530 cc        1 2RQ      0.406400
     20 N20         5.7670    3.0410   -4.4780 na        1 2RQ     -0.179900
     21 C21         4.5040    3.7450   -4.4830 c3        1 2RQ      0.050000
     22 C22         3.4390    3.0430   -5.3440 c3        1 2RQ     -0.091400
     23 C23         2.1210    3.8080   -5.2650 c3        1 2RQ      0.163800
     24 N24         2.2510    5.2080   -5.6180 n3        1 2RQ     -0.824200
     25 C25         3.2860    5.9010   -4.8780 c3        1 2RQ      0.163800
     26 C26         4.6430    5.2030   -4.9540 c3        1 2RQ     -0.091400
     27 C27         8.4160    0.7930   -3.2570 ca        1 2RQ     -0.117500
     28 C28         8.8320    1.0120   -1.9380 ca        1 2RQ     -0.086000
     29 C29         9.7020    0.1280   -1.3090 ca        1 2RQ     -0.170000
     30 C30        10.1740   -0.9960   -2.0100 ca        1 2RQ      0.125900
     31 C31         9.7700   -1.2200   -3.3390 ca        1 2RQ     -0.170000
     32 C32         8.9000   -0.3270   -3.9520 ca        1 2RQ     -0.086000
     33 F33        11.0210   -1.8630   -1.4050 f         1 2RQ     -0.142900
     34 H011        0.6690    4.2280    0.0390 h1        1 2RQ      0.046033
     35 H012       -0.5650    3.0710    0.7610 h1        1 2RQ      0.046033
     36 H013        0.8620    3.6370    1.7710 h1        1 2RQ      0.046033
     37 H041       -0.0920    1.6410    2.4500 ha        1 2RQ      0.141000
     38 H051        0.1180   -0.5580    3.5760 ha        1 2RQ      0.136000
     39 H061        1.6730   -2.2950    2.6900 ha        1 2RQ      0.140000
     40 H071        3.0450   -1.8220    0.6450 ha        1 2RQ      0.154000
     41 H121        5.8460    3.0690    1.1520 h4        1 2RQ      0.032100
     42 H131        7.0080    3.4720   -1.0850 ha        1 2RQ      0.164000
     43 H191        6.4920    3.4210   -6.5120 h5        1 2RQ      0.066100
     44 H211        4.1310    3.7590   -3.4130 h1        1 2RQ      0.073700
     45 H222        3.7880    2.9850   -6.4080 hc        1 2RQ      0.062950
     46 H221        3.2690    1.9990   -4.9730 hc        1 2RQ      0.062950
     47 H231        1.6960    3.6700   -4.2260 h1        1 2RQ      0.034950
     48 H232        1.3940    3.3460   -5.9920 h1        1 2RQ      0.034950
     49 H241        1.3720    5.6770   -5.5010 hn        1 2RQ      0.367800
     50 H252        3.3870    6.9300   -5.3240 h1        1 2RQ      0.034950
     51 H251        3.0180    6.0280   -3.7870 h1        1 2RQ      0.034950
     52 H262        5.0290    5.2320   -6.0050 hc        1 2RQ      0.062950
     53 H261        5.3660    5.7580   -4.3030 hc        1 2RQ      0.062950
     54 H281        8.4710    1.8950   -1.3890 ha        1 2RQ      0.144500
     55 H291       10.0260    0.3000   -0.2730 ha        1 2RQ      0.147500
     56 H311       10.1470   -2.0990   -3.8820 ha        1 2RQ      0.147500
     57 H321        8.5890   -0.4990   -4.9950 ha        1 2RQ      0.144500
@<TRIPOS>BOND
     1    1    2 1   
     2    1   34 1   
     3    1   35 1   
     4    1   36 1   
     5    2    3 1   
     6    3    4 ar  
     7    3    8 ar  
     8    4    5 ar  
     9    4   37 1   
    10    5    6 ar  
    11    5   38 1   
    12    6    7 ar  
    13    6   39 1   
    14    7    8 ar  
    15    7   40 1   
    16    8    9 1   
    17    9   10 1   
    18   10   11 ar  
    19   10   15 ar  
    20   11   12 ar  
    21   12   13 ar  
    22   12   41 1   
    23   13   14 ar  
    24   13   42 1   
    25   14   15 ar  
    26   14   16 1   
    27   16   17 2   
    28   16   20 1   
    29   17   18 1   
    30   17   27 1   
    31   18   19 2   
    32   19   20 1   
    33   19   43 1   
    34   20   21 1   
    35   21   22 1   
    36   21   26 1   
    37   21   44 1   
    38   22   23 1   
    39   22   45 1   
    40   22   46 1   
    41   23   24 1   
    42   23   47 1   
    43   23   48 1   
    44   24   25 1   
    45   24   49 1   
    46   25   26 1   
    47   25   50 1   
    48   25   51 1   
    49   26   52 1   
    50   26   53 1   
    51   27   28 ar  
    52   27   32 ar  
    53   28   29 ar  
    54   28   54 1   
    55   29   30 ar  
    56   29   55 1   
    57   30   31 ar  
    58   30   33 1   
    59   31   32 ar  
    60   31   56 1   
    61   32   57 1   
@<TRIPOS>SUBSTRUCTURE
     1 2RQ         1 TEMP              0 ****  ****    0 ROOT
