@<TRIPOS>MOLECULE
2RR
   46    49     1     0     0
SMALL
bcc


@<TRIPOS>ATOM
      1 C20         0.1860    0.0360    0.0830 c3        1 2RR     -0.053700
      2 C21         1.6810    0.3330    0.0030 c         1 2RR      0.573700
      3 O21         2.3380    0.6920    0.9860 o         1 2RR     -0.520100
      4 C25         3.5600   -0.1900   -3.8300 ca        1 2RR      0.193600
      5 C26         4.3180    0.0620   -2.6590 ca        1 2RR     -0.216000
      6 C27         3.6850    0.2250   -1.4370 ca        1 2RR     -0.035500
      7 C24         2.1480   -0.2550   -3.7140 ca        1 2RR     -0.216000
      8 C23         1.5340   -0.0920   -2.4810 ca        1 2RR     -0.035500
      9 C22         2.2870    0.1470   -1.3250 ca        1 2RR     -0.230600
     10 C2         -0.6420    1.2120    2.2110 cc        1 2RR      0.391800
     11 C4         -1.1380   -0.5280    3.4610 ca        1 2RR      0.074400
     12 N1         -0.4120    0.0800    1.3810 na        1 2RR     -0.131300
     13 C9         -0.6930   -1.0420    2.1770 ca        1 2RR     -0.063200
     14 C5         -1.5270   -1.4250    4.4690 ca        1 2RR     -0.069000
     15 C8         -0.6440   -2.4200    1.9270 ca        1 2RR     -0.129000
     16 C6         -1.4670   -2.7810    4.1980 ca        1 2RR     -0.148000
     17 C7         -1.0330   -3.2700    2.9510 ca        1 2RR     -0.107000
     18 N3         -1.0930    0.8740    3.4430 nd        1 2RR     -0.577100
     19 C18        -2.3550    6.2780    6.4430 c1        1 2RR      0.207700
     20 C14        -0.7800    3.8270    2.5470 cc        1 2RR      0.497900
     21 N13        -0.3690    4.8630    1.7580 nd        1 2RR     -0.427300
     22 C10        -0.4340    2.5800    1.7760 cc        1 2RR      0.196700
     23 N11         0.1250    3.0020    0.6290 nd        1 2RR     -0.323300
     24 N19        -2.3780    7.2900    7.0150 n1        1 2RR     -0.358800
     25 O12         0.1440    4.3240    0.6450 os        1 2RR      0.130600
     26 C16        -1.4980    5.1250    4.4670 c3        1 2RR      0.196800
     27 C17        -2.3400    5.0120    5.7460 c3        1 2RR     -0.033300
     28 H1          0.0250   -1.0040   -0.3310 h1        1 2RR      0.090200
     29 H2         -0.3490    0.7700   -0.5890 h1        1 2RR      0.090200
     30 H3          5.4150    0.1250   -2.7130 ha        1 2RR      0.138000
     31 H4          4.2800    0.4260   -0.5290 ha        1 2RR      0.142500
     32 H5          1.5300   -0.4400   -4.6050 ha        1 2RR      0.138000
     33 H6          0.4340   -0.1450   -2.4330 ha        1 2RR      0.142500
     34 H7          5.1210   -0.1170   -5.1280 hn        1 2RR      0.407800
     35 H8          3.6250   -0.3280   -5.8560 hn        1 2RR      0.407800
     36 H9         -1.8670   -1.0490    5.4440 ha        1 2RR      0.147000
     37 H10        -0.3040   -2.8140    0.9600 ha        1 2RR      0.137000
     38 H11        -1.7640   -3.5030    4.9740 ha        1 2RR      0.136000
     39 H12        -1.0010   -4.3580    2.7880 ha        1 2RR      0.136000
     40 H13        -1.4150    3.0490    4.2960 hn        1 2RR      0.453800
     41 H14        -1.9460    5.9150    3.7990 h1        1 2RR      0.064700
     42 H15        -0.4560    5.4590    4.7440 h1        1 2RR      0.064700
     43 H16        -3.3960    4.7180    5.4920 hc        1 2RR      0.084200
     44 H17        -1.9180    4.2230    6.4290 hc        1 2RR      0.084200
     45 N28         4.1850   -0.4370   -5.0430 nv        1 2RR     -0.835200
     46 N15        -1.4700    3.8760    3.7370 nu        1 2RR     -0.819900
@<TRIPOS>BOND
     1    1    2 1   
     2    1   12 1   
     3    1   28 1   
     4    1   29 1   
     5    2    3 2   
     6    2    9 1   
     7    4    5 ar  
     8    4    7 ar  
     9    4   45 1   
    10    5    6 ar  
    11    5   30 1   
    12    6    9 ar  
    13    6   31 1   
    14    7    8 ar  
    15    7   32 1   
    16    8    9 ar  
    17    8   33 1   
    18   10   12 1   
    19   10   18 2   
    20   10   22 1   
    21   11   13 ar  
    22   11   14 ar  
    23   11   18 1   
    24   12   13 1   
    25   13   15 ar  
    26   14   16 ar  
    27   14   36 1   
    28   15   17 ar  
    29   15   37 1   
    30   16   17 ar  
    31   16   38 1   
    32   17   39 1   
    33   19   24 3   
    34   19   27 1   
    35   20   21 2   
    36   20   22 1   
    37   20   46 1   
    38   21   25 1   
    39   22   23 2   
    40   23   25 1   
    41   26   27 1   
    42   26   41 1   
    43   26   42 1   
    44   26   46 1   
    45   27   43 1   
    46   27   44 1   
    47   34   45 1   
    48   35   45 1   
    49   40   46 1   
@<TRIPOS>SUBSTRUCTURE
     1 2RR         1 TEMP              0 ****  ****    0 ROOT
