@<TRIPOS>MOLECULE
2RR
   48    51     1     0     0
SMALL
bcc


@<TRIPOS>ATOM
      1 C20         0.0770    0.1910   -0.0530 c3        1 2RR     -0.050700
      2 C21         1.5230    0.6580   -0.1740 c         1 2RR      0.552700
      3 O21         2.0910    1.3250    0.6910 o         1 2RR     -0.472100
      4 C25         3.6270   -0.4240   -3.7370 ca        1 2RR     -0.039400
      5 C26         4.3300   -0.2010   -2.5410 ca        1 2RR     -0.101500
      6 C27         3.6190    0.1470   -1.3940 ca        1 2RR     -0.062000
      7 C24         2.2270   -0.3080   -3.7830 ca        1 2RR     -0.101500
      8 C23         1.5350    0.0350   -2.6220 ca        1 2RR     -0.062000
      9 C22         2.2220    0.2640   -1.4260 ca        1 2RR     -0.120600
     10 C2         -0.7830    1.2930    2.0960 cc        1 2RR      0.315800
     11 C4         -1.1670   -0.4730    3.3460 ca        1 2RR      0.076400
     12 N1         -0.4720    0.1870    1.2670 na        1 2RR     -0.113300
     13 C9         -0.6930   -0.9530    2.0580 ca        1 2RR     -0.048200
     14 C5         -1.5010   -1.3990    4.3550 ca        1 2RR     -0.058000
     15 C8         -0.5640   -2.3270    1.8000 ca        1 2RR     -0.140000
     16 C6         -1.3610   -2.7450    4.0740 ca        1 2RR     -0.120000
     17 C7         -0.9020   -3.2010    2.8190 ca        1 2RR     -0.065000
     18 N3         -1.2090    0.9220    3.3330 nd        1 2RR     -0.596100
     19 C18        -2.2480    6.2200    6.6730 c1        1 2RR      0.157700
     20 C14        -0.9820    3.8420    2.5980 cc        1 2RR      0.270900
     21 N13        -0.7610    4.9590    1.8540 nd        1 2RR     -0.231300
     22 C10        -0.6860    2.6800    1.7040 cc        1 2RR      0.293700
     23 N11        -0.3220    3.2220    0.5280 nd        1 2RR     -0.310300
     24 N19        -2.3950    7.2620    7.1670 n1        1 2RR     -0.243800
     25 O12        -0.3830    4.5530    0.6640 os        1 2RR      0.196600
     26 C16        -1.6210    5.0770    4.6360 c3        1 2RR      0.105800
     27 C17        -2.0740    4.9110    6.0890 c3        1 2RR     -0.031300
     28 H1         -0.5510    0.8600   -0.7160 h1        1 2RR      0.103700
     29 H2          0.0100   -0.8650   -0.4530 h1        1 2RR      0.103700
     30 H3          5.4290   -0.2870   -2.4880 ha        1 2RR      0.172500
     31 H4          4.1620    0.3440   -0.4500 ha        1 2RR      0.182500
     32 H5          1.6620   -0.4790   -4.7160 ha        1 2RR      0.172500
     33 H6          0.4370    0.1330   -2.6700 ha        1 2RR      0.182500
     34 H7          4.6570    0.0920   -5.4350 hn        1 2RR      0.472467
     35 H8          5.2020   -1.3170   -4.7150 hn        1 2RR      0.472467
     36 H9         -1.8640   -1.0520    5.3340 ha        1 2RR      0.163000
     37 H10        -0.2130   -2.6990    0.8280 ha        1 2RR      0.144000
     38 H11        -1.6160   -3.4910    4.8460 ha        1 2RR      0.167000
     39 H12        -0.8130   -4.2880    2.6520 ha        1 2RR      0.163000
     40 H13        -2.2940    3.2040    3.9930 hn        1 2RR      0.487800
     41 H14        -0.6470    5.6490    4.5950 hx        1 2RR      0.131700
     42 H15        -2.4000    5.6460    4.0480 hx        1 2RR      0.131700
     43 H16        -3.0510    4.3520    6.1470 hc        1 2RR      0.100700
     44 H17        -1.3100    4.3410    6.6900 hc        1 2RR      0.100700
     45 N15        -1.4120    3.7460    3.9740 n4        1 2RR     -0.707700
     46 H283        3.7720   -1.3210   -5.5850 hn        1 2RR      0.472467
     47 H152       -0.6960    3.2070    4.4920 hn        1 2RR      0.487800
     48 N28         4.3660   -0.7690   -4.9540 n4        1 2RR     -0.708000
@<TRIPOS>BOND
     1    1    2 1   
     2    1   12 1   
     3    1   28 1   
     4    1   29 1   
     5    2    3 2   
     6    2    9 1   
     7    4    5 ar  
     8    4    7 ar  
     9    4   48 1   
    10    5    6 ar  
    11    5   30 1   
    12    6    9 ar  
    13    6   31 1   
    14    7    8 ar  
    15    7   32 1   
    16    8    9 ar  
    17    8   33 1   
    18   10   12 1   
    19   10   18 2   
    20   10   22 1   
    21   11   13 ar  
    22   11   14 ar  
    23   11   18 1   
    24   12   13 1   
    25   13   15 ar  
    26   14   16 ar  
    27   14   36 1   
    28   15   17 ar  
    29   15   37 1   
    30   16   17 ar  
    31   16   38 1   
    32   17   39 1   
    33   19   24 3   
    34   19   27 1   
    35   20   21 2   
    36   20   22 1   
    37   20   45 1   
    38   21   25 1   
    39   22   23 2   
    40   23   25 1   
    41   26   27 1   
    42   26   41 1   
    43   26   42 1   
    44   26   45 1   
    45   27   43 1   
    46   27   44 1   
    47   34   48 1   
    48   35   48 1   
    49   40   45 1   
    50   45   47 1   
    51   46   48 1   
@<TRIPOS>SUBSTRUCTURE
     1 2RR         1 TEMP              0 ****  ****    0 ROOT
