@<TRIPOS>MOLECULE
2RS
   66    69     1     0     0
SMALL
bcc


@<TRIPOS>ATOM
      1 CAQ         0.2590    0.0140    0.2060 c3        1 2RS      0.130800
      2 CAN         1.7810    0.0110    0.0300 c3        1 2RS      0.126400
      3 OAX         2.4520    0.2750    1.2560 os        1 2RS     -0.415600
      4 CAO         2.0390    1.5070    1.8360 c3        1 2RS      0.126400
      5 CAR         0.5220    1.5550    2.0510 c3        1 2RS      0.130800
      6 NBI        -0.2280    1.2330    0.8440 n3        1 2RS     -0.723600
      7 CAP        -1.6670    1.1770    1.0650 c3        1 2RS      0.173800
      8 CAL        -2.2630    2.4950    1.5540 c3        1 2RS     -0.093400
      9 CAM        -3.7790    2.4000    1.4890 c3        1 2RS      0.139400
     10 OAY        -4.2460    3.6270    2.0860 os        1 2RS     -0.413100
     11 CBD        -8.5140    1.1080    0.6380 ca        1 2RS      0.169600
     12 CAH        -7.5530    0.1580    1.0460 ca        1 2RS     -0.148500
     13 CAF        -7.3610   -1.0040    0.3070 ca        1 2RS     -0.076500
     14 CBA        -8.1240   -1.2540   -0.8410 ca        1 2RS     -0.034000
     15 CAE        -7.9210   -2.4430   -1.5890 cg        1 2RS      0.235800
     16 NAD        -7.7550   -3.4180   -2.2030 n1        1 2RS     -0.363800
     17 CAG        -9.0900   -0.3230   -1.2460 ca        1 2RS     -0.076500
     18 CAI        -9.2840    0.8450   -0.5200 ca        1 2RS     -0.148500
     19 NAS        -8.2780    4.3920    2.2830 nb        1 2RS     -0.854000
     20 CBF        -7.3020    5.2650    2.7510 ca        1 2RS      0.925900
     21 CBG        -5.6090    3.8190    2.1370 ca        1 2RS      0.913300
     22 NAU        -5.9320    5.0360    2.6820 nb        1 2RS     -0.776000
     23 NAT        -6.4660    2.8500    1.6740 nb        1 2RS     -0.854000
     24 CBE        -7.8050    3.1900    1.7850 ca        1 2RS      0.942900
     25 CBH        -6.9200    7.5590    3.5470 ca        1 2RS      0.096600
     26 CBB        -6.9620    8.6160    2.6040 ca        1 2RS     -0.050300
     27 CAB        -7.8430    8.5400    1.4140 c3        1 2RS     -0.057800
     28 CAJ        -6.1690    9.7470    2.7990 ca        1 2RS     -0.134500
     29 CAZ        -5.3280    9.8530    3.9110 ca        1 2RS     -0.061300
     30 CAA        -4.4950   11.0620    4.1060 c3        1 2RS     -0.054800
     31 CAK        -5.2940    8.8120    4.8390 ca        1 2RS     -0.134500
     32 CBC        -6.0800    7.6660    4.6790 ca        1 2RS     -0.050300
     33 CAC        -6.0140    6.5980    5.7050 c3        1 2RS     -0.057800
     34 H1         -0.2180   -0.0550   -0.8110 h1        1 2RS      0.041450
     35 H2         -0.0340   -0.9060    0.7920 h1        1 2RS      0.041450
     36 H3          2.1320   -1.0120   -0.2670 h1        1 2RS      0.054450
     37 H4          2.0930    0.7660   -0.7390 h1        1 2RS      0.054450
     38 H5          2.5700    1.5430    2.8230 h1        1 2RS      0.054450
     39 H6          2.3740    2.3580    1.1860 h1        1 2RS      0.054450
     40 H7          0.2600    0.8590    2.9010 h1        1 2RS      0.041450
     41 H8          0.2430    2.6010    2.3580 h1        1 2RS      0.041450
     42 H10        -2.1420    0.9140    0.0760 h1        1 2RS      0.033700
     43 H11        -1.9450    0.3650    1.8010 h1        1 2RS      0.033700
     44 H12        -1.9490    2.7040    2.6100 hc        1 2RS      0.067700
     45 H13        -1.9130    3.3520    0.9230 hc        1 2RS      0.067700
     46 H14        -4.1390    2.3340    0.4300 h1        1 2RS      0.055700
     47 H15        -4.1600    1.5280    2.0800 h1        1 2RS      0.055700
     48 H16        -9.7100    2.6360    1.2870 hn        1 2RS      0.451800
     49 H17        -6.9480    0.3230    1.9510 ha        1 2RS      0.151500
     50 H18        -6.6060   -1.7360    0.6340 ha        1 2RS      0.147000
     51 H19        -9.6950   -0.5140   -2.1460 ha        1 2RS      0.147000
     52 H20       -10.0470    1.5640   -0.8580 ha        1 2RS      0.151500
     53 H21        -8.7200    6.6610    3.1950 hn        1 2RS      0.438800
     54 H22        -8.9190    8.5180    1.7230 hc        1 2RS      0.049033
     55 H23        -7.6950    9.4240    0.7460 hc        1 2RS      0.049033
     56 H24        -7.6270    7.6170    0.8210 hc        1 2RS      0.049033
     57 H25        -6.2010   10.5660    2.0640 ha        1 2RS      0.135000
     58 H26        -5.0760   11.8370    4.6680 hc        1 2RS      0.046033
     59 H27        -3.5730   10.8240    4.6900 hc        1 2RS      0.046033
     60 H28        -4.1900   11.4990    3.1240 hc        1 2RS      0.046033
     61 H29        -4.6330    8.8900    5.7170 ha        1 2RS      0.135000
     62 H30        -5.5070    5.6930    5.2860 hc        1 2RS      0.049033
     63 H31        -5.4380    6.9380    6.6010 hc        1 2RS      0.049033
     64 H32        -7.0390    6.3040    6.0400 hc        1 2RS      0.049033
     65 NAW        -7.7660    6.4260    3.3910 nu        1 2RS     -0.697300
     66 NAV        -8.7890    2.2630    1.3980 nu        1 2RS     -0.722300
@<TRIPOS>BOND
     1    1    2 1   
     2    1    6 1   
     3    1   34 1   
     4    1   35 1   
     5    2    3 1   
     6    2   36 1   
     7    2   37 1   
     8    3    4 1   
     9    4    5 1   
    10    4   38 1   
    11    4   39 1   
    12    5    6 1   
    13    5   40 1   
    14    5   41 1   
    15    6    7 1   
    16    7    8 1   
    17    7   42 1   
    18    7   43 1   
    19    8    9 1   
    20    8   44 1   
    21    8   45 1   
    22    9   10 1   
    23    9   46 1   
    24    9   47 1   
    25   10   21 1   
    26   11   12 ar  
    27   11   18 ar  
    28   11   66 1   
    29   12   13 ar  
    30   12   49 1   
    31   13   14 ar  
    32   13   50 1   
    33   14   15 1   
    34   14   17 ar  
    35   15   16 3   
    36   17   18 ar  
    37   17   51 1   
    38   18   52 1   
    39   19   20 ar  
    40   19   24 ar  
    41   20   22 ar  
    42   20   65 1   
    43   21   22 ar  
    44   21   23 ar  
    45   23   24 ar  
    46   24   66 1   
    47   25   26 ar  
    48   25   32 ar  
    49   25   65 1   
    50   26   27 1   
    51   26   28 ar  
    52   27   54 1   
    53   27   55 1   
    54   27   56 1   
    55   28   29 ar  
    56   28   57 1   
    57   29   30 1   
    58   29   31 ar  
    59   30   58 1   
    60   30   59 1   
    61   30   60 1   
    62   31   32 ar  
    63   31   61 1   
    64   32   33 1   
    65   33   62 1   
    66   33   63 1   
    67   33   64 1   
    68   48   66 1   
    69   53   65 1   
@<TRIPOS>SUBSTRUCTURE
     1 2RS         1 TEMP              0 ****  ****    0 ROOT
