@<TRIPOS>MOLECULE
2RT
   43    45     1     0     0
SMALL
bcc


@<TRIPOS>ATOM
      1 NAV         0.3630    0.2660   -0.6970 nh        1 2RT     -0.720300
      2 CBD         1.7330    0.2560   -0.3660 ca        1 2RT      0.166600
      3 CAH         2.1220    0.5640    0.9590 ca        1 2RT     -0.147500
      4 CAF         3.4660    0.6380    1.3010 ca        1 2RT     -0.076000
      5 CBA         4.4540    0.4020    0.3360 ca        1 2RT     -0.034000
      6 CAE         5.8270    0.4700    0.6900 cg        1 2RT      0.235800
      7 NAD         6.9530    0.5260    0.9800 n1        1 2RT     -0.364800
      8 CAG         4.0780    0.1000   -0.9800 ca        1 2RT     -0.076000
      9 CAI         2.7350    0.0330   -1.3350 ca        1 2RT     -0.147500
     10 NAS        -1.6670   -0.7580   -1.3410 nb        1 2RT     -0.838000
     11 CBF        -2.2970   -1.7510   -2.0800 ca        1 2RT      0.911900
     12 CBG        -0.2740   -2.6930   -2.6650 ca        1 2RT      0.699900
     13 NAU        -1.6200   -2.7690   -2.7550 nb        1 2RT     -0.777000
     14 NAT         0.4700   -1.7640   -2.0140 nb        1 2RT     -0.795000
     15 CBE        -0.2810   -0.7900   -1.3630 ca        1 2RT      0.917900
     16 CBH        -4.4680   -2.7930   -2.5600 ca        1 2RT      0.097600
     17 CBB        -5.0390   -3.6280   -1.5670 ca        1 2RT     -0.052300
     18 CAB        -4.8040   -3.3680   -0.1270 c3        1 2RT     -0.057300
     19 CAJ        -5.8400   -4.7040   -1.9490 ca        1 2RT     -0.134500
     20 CAZ        -6.0850   -4.9760   -3.2980 ca        1 2RT     -0.061300
     21 CAA        -6.9420   -6.1200   -3.6860 c3        1 2RT     -0.055800
     22 CAK        -5.5250   -4.1480   -4.2720 ca        1 2RT     -0.134500
     23 CBC        -4.7230   -3.0560   -3.9250 ca        1 2RT     -0.052300
     24 CAC        -4.1680   -2.1980   -4.9990 c3        1 2RT     -0.057300
     25 H1         -0.2170    0.8070   -0.0880 hn        1 2RT      0.450800
     26 H2          1.3630    0.7510    1.7350 ha        1 2RT      0.152500
     27 H3          3.7540    0.8780    2.3360 ha        1 2RT      0.148000
     28 H4          4.8500   -0.0820   -1.7440 ha        1 2RT      0.148000
     29 H5          2.4700   -0.1940   -2.3790 ha        1 2RT      0.152500
     30 H6          0.2970   -3.4920   -3.1870 h5        1 2RT      0.059100
     31 H7         -4.1340   -1.0780   -1.5000 hn        1 2RT      0.438800
     32 H8         -5.2440   -2.3820    0.1710 hc        1 2RT      0.048867
     33 H9         -3.7080   -3.3460    0.0970 hc        1 2RT      0.048867
     34 H10        -5.2710   -4.1610    0.5080 hc        1 2RT      0.048867
     35 H11        -6.2810   -5.3520   -1.1760 ha        1 2RT      0.135000
     36 H12        -6.8450   -6.9580   -2.9530 hc        1 2RT      0.046033
     37 H13        -6.6670   -6.5020   -4.6990 hc        1 2RT      0.046033
     38 H14        -8.0150   -5.8000   -3.7120 hc        1 2RT      0.046033
     39 H15        -5.7170   -4.3570   -5.3360 ha        1 2RT      0.135000
     40 H16        -4.5850   -2.4830   -5.9970 hc        1 2RT      0.048867
     41 H17        -4.4120   -1.1230   -4.8110 hc        1 2RT      0.048867
     42 H18        -3.0550   -2.3030   -5.0420 hc        1 2RT      0.048867
     43 NAW        -3.6930   -1.6590   -2.1860 nh        1 2RT     -0.700300
@<TRIPOS>BOND
     1    1    2 1   
     2    1   15 1   
     3    1   25 1   
     4    2    3 ar  
     5    2    9 ar  
     6    3    4 ar  
     7    3   26 1   
     8    4    5 ar  
     9    4   27 1   
    10    5    6 1   
    11    5    8 ar  
    12    6    7 3   
    13    8    9 ar  
    14    8   28 1   
    15    9   29 1   
    16   10   11 ar  
    17   10   15 ar  
    18   11   13 ar  
    19   11   43 1   
    20   12   13 ar  
    21   12   14 ar  
    22   12   30 1   
    23   14   15 ar  
    24   16   17 ar  
    25   16   23 ar  
    26   16   43 1   
    27   17   18 1   
    28   17   19 ar  
    29   18   32 1   
    30   18   33 1   
    31   18   34 1   
    32   19   20 ar  
    33   19   35 1   
    34   20   21 1   
    35   20   22 ar  
    36   21   36 1   
    37   21   37 1   
    38   21   38 1   
    39   22   23 ar  
    40   22   39 1   
    41   23   24 1   
    42   24   40 1   
    43   24   41 1   
    44   24   42 1   
    45   31   43 1   
@<TRIPOS>SUBSTRUCTURE
     1 2RT         1 TEMP              0 ****  ****    0 ROOT
