@<TRIPOS>MOLECULE
2RT
   43    45     1     0     0
SMALL
bcc


@<TRIPOS>ATOM
      1 NAV         0.1770    0.2560   -0.4210 nh        1 2RT     -0.720300
      2 CBD         1.5490    0.0470   -0.1680 ca        1 2RT      0.166600
      3 CAH         1.9830   -0.1130    1.1700 ca        1 2RT     -0.147500
      4 CAF         3.3350   -0.2440    1.4610 ca        1 2RT     -0.076000
      5 CBA         4.2840   -0.2260    0.4300 ca        1 2RT     -0.034000
      6 CAE         5.6650   -0.3680    0.7300 cg        1 2RT      0.235800
      7 NAD         6.7960   -0.4850    0.9760 n1        1 2RT     -0.364800
      8 CAG         3.8630   -0.0630   -0.8960 ca        1 2RT     -0.076000
      9 CAI         2.5130    0.0790   -1.1970 ca        1 2RT     -0.147500
     10 NAS        -1.9370   -0.3670   -1.2720 nb        1 2RT     -0.838000
     11 CBF        -2.6550   -1.0240   -2.2620 ca        1 2RT      0.911900
     12 CBG        -0.7220   -1.8640   -3.2000 ca        1 2RT      0.699900
     13 NAU        -2.0720   -1.8160   -3.2540 nb        1 2RT     -0.777000
     14 NAT         0.1030   -1.2470   -2.3200 nb        1 2RT     -0.795000
     15 CBE        -0.5580   -0.4840   -1.3610 ca        1 2RT      0.917900
     16 CBH        -4.9090   -1.7070   -2.9590 ca        1 2RT      0.097600
     17 CBB        -5.5260   -2.7740   -2.2620 ca        1 2RT     -0.052300
     18 CAB        -5.2460   -3.0070   -0.8240 c3        1 2RT     -0.057300
     19 CAJ        -6.4150   -3.6140   -2.9330 ca        1 2RT     -0.134500
     20 CAZ        -6.7040   -3.4210   -4.2860 ca        1 2RT     -0.061300
     21 CAA        -7.6550   -4.3180   -4.9830 c3        1 2RT     -0.055800
     22 CAK        -6.0980   -2.3650   -4.9680 ca        1 2RT     -0.134500
     23 CBC        -5.2070   -1.4990   -4.3250 ca        1 2RT     -0.052300
     24 CAC        -4.6050   -0.3820   -5.0910 c3        1 2RT     -0.057300
     25 H1         -0.3480    0.6120    0.3530 hn        1 2RT      0.450800
     26 H2          1.2550   -0.1340    1.9950 ha        1 2RT      0.152500
     27 H3          3.6590   -0.3690    2.5060 ha        1 2RT      0.148000
     28 H4          4.6050   -0.0430   -1.7090 ha        1 2RT      0.148000
     29 H5          2.2120    0.2180   -2.2480 ha        1 2RT      0.152500
     30 H6         -0.2250   -2.4910   -3.9730 h5        1 2RT      0.059100
     31 H7         -4.4240   -0.4490   -1.4230 hn        1 2RT      0.438800
     32 H8         -5.6030   -2.1420   -0.2100 hc        1 2RT      0.048867
     33 H9         -5.7630   -3.9280   -0.4570 hc        1 2RT      0.048867
     34 H10        -4.1480   -3.1330   -0.6510 hc        1 2RT      0.048867
     35 H11        -6.8930   -4.4440   -2.3890 ha        1 2RT      0.135000
     36 H12        -8.6970   -3.9230   -4.8790 hc        1 2RT      0.046033
     37 H13        -7.4150   -4.3870   -6.0730 hc        1 2RT      0.046033
     38 H14        -7.6260   -5.3470   -4.5480 hc        1 2RT      0.046033
     39 H15        -6.3240   -2.2070   -6.0340 ha        1 2RT      0.135000
     40 H16        -3.5050   -0.5440   -5.2120 hc        1 2RT      0.048867
     41 H17        -5.0600   -0.3020   -6.1090 hc        1 2RT      0.048867
     42 H18        -4.7610    0.5900   -4.5610 hc        1 2RT      0.048867
     43 NAW        -4.0420   -0.8080   -2.2760 nh        1 2RT     -0.700300
@<TRIPOS>BOND
     1    1    2 1   
     2    1   15 1   
     3    1   25 1   
     4    2    3 ar  
     5    2    9 ar  
     6    3    4 ar  
     7    3   26 1   
     8    4    5 ar  
     9    4   27 1   
    10    5    6 1   
    11    5    8 ar  
    12    6    7 3   
    13    8    9 ar  
    14    8   28 1   
    15    9   29 1   
    16   10   11 ar  
    17   10   15 ar  
    18   11   13 ar  
    19   11   43 1   
    20   12   13 ar  
    21   12   14 ar  
    22   12   30 1   
    23   14   15 ar  
    24   16   17 ar  
    25   16   23 ar  
    26   16   43 1   
    27   17   18 1   
    28   17   19 ar  
    29   18   32 1   
    30   18   33 1   
    31   18   34 1   
    32   19   20 ar  
    33   19   35 1   
    34   20   21 1   
    35   20   22 ar  
    36   21   36 1   
    37   21   37 1   
    38   21   38 1   
    39   22   23 ar  
    40   22   39 1   
    41   23   24 1   
    42   24   40 1   
    43   24   41 1   
    44   24   42 1   
    45   31   43 1   
@<TRIPOS>SUBSTRUCTURE
     1 2RT         1 TEMP              0 ****  ****    0 ROOT
