@<TRIPOS>MOLECULE
2RT
   43    45     1     0     0
SMALL
bcc


@<TRIPOS>ATOM
      1 NAV         0.3530    0.2610   -0.6680 nu        1 2RT     -0.720300
      2 CBD         1.7240    0.2540   -0.3410 ca        1 2RT      0.166600
      3 CAH         2.1150    0.5450    0.9880 ca        1 2RT     -0.147500
      4 CAF         3.4600    0.6210    1.3270 ca        1 2RT     -0.076000
      5 CBA         4.4460    0.4040    0.3550 ca        1 2RT     -0.034000
      6 CAE         5.8210    0.4750    0.7060 cg        1 2RT      0.235800
      7 NAD         6.9470    0.5320    0.9930 n1        1 2RT     -0.364800
      8 CAG         4.0680    0.1190   -0.9640 ca        1 2RT     -0.076000
      9 CAI         2.7240    0.0510   -1.3150 ca        1 2RT     -0.147500
     10 NAS        -1.6730   -0.7650   -1.3210 nb        1 2RT     -0.838000
     11 CBF        -2.3000   -1.7500   -2.0720 ca        1 2RT      0.911900
     12 CBG        -0.2730   -2.6720   -2.6770 ca        1 2RT      0.699900
     13 NAU        -1.6200   -2.7550   -2.7640 nb        1 2RT     -0.777000
     14 NAT         0.4670   -1.7490   -2.0150 nb        1 2RT     -0.795000
     15 CBE        -0.2870   -0.7890   -1.3470 ca        1 2RT      0.917900
     16 CBH        -4.4660   -2.7970   -2.5620 ca        1 2RT      0.097600
     17 CBB        -5.0300   -3.6500   -1.5810 ca        1 2RT     -0.052300
     18 CAB        -4.7920   -3.4100   -0.1370 c3        1 2RT     -0.057300
     19 CAJ        -5.8260   -4.7240   -1.9760 ca        1 2RT     -0.134500
     20 CAZ        -6.0740   -4.9770   -3.3280 ca        1 2RT     -0.061300
     21 CAA        -6.9260   -6.1200   -3.7310 c3        1 2RT     -0.055800
     22 CAK        -5.5210   -4.1320   -4.2910 ca        1 2RT     -0.134500
     23 CBC        -4.7240   -3.0410   -3.9300 ca        1 2RT     -0.052300
     24 CAC        -4.1770   -2.1630   -4.9930 c3        1 2RT     -0.057300
     25 H1         -0.2280    0.7900   -0.0490 hn        1 2RT      0.450800
     26 H2          1.3570    0.7160    1.7680 ha        1 2RT      0.152500
     27 H3          3.7500    0.8480    2.3640 ha        1 2RT      0.148000
     28 H4          4.8390   -0.0470   -1.7320 ha        1 2RT      0.148000
     29 H5          2.4570   -0.1620   -2.3630 ha        1 2RT      0.152500
     30 H6          0.3000   -3.4600   -3.2120 h5        1 2RT      0.059100
     31 H7         -4.1390   -1.0950   -1.4780 hn        1 2RT      0.438800
     32 H8         -5.2370   -2.4320    0.1770 hc        1 2RT      0.048867
     33 H9         -3.6950   -3.3850    0.0840 hc        1 2RT      0.048867
     34 H10        -5.2520   -4.2150    0.4870 hc        1 2RT      0.048867
     35 H11        -6.2610   -5.3870   -1.2120 ha        1 2RT      0.135000
     36 H12        -6.8290   -6.9660   -3.0060 hc        1 2RT      0.046033
     37 H13        -6.6450   -6.4910   -4.7470 hc        1 2RT      0.046033
     38 H14        -7.9990   -5.8030   -3.7580 hc        1 2RT      0.046033
     39 H15        -5.7150   -4.3250   -5.3580 ha        1 2RT      0.135000
     40 H16        -4.5950   -2.4350   -5.9930 hc        1 2RT      0.048867
     41 H17        -4.4270   -1.0920   -4.7880 hc        1 2RT      0.048867
     42 H18        -3.0630   -2.2600   -5.0400 hc        1 2RT      0.048867
     43 NAW        -3.6970   -1.6640   -2.1740 nu        1 2RT     -0.700300
@<TRIPOS>BOND
     1    1    2 1   
     2    1   15 1   
     3    1   25 1   
     4    2    3 ar  
     5    2    9 ar  
     6    3    4 ar  
     7    3   26 1   
     8    4    5 ar  
     9    4   27 1   
    10    5    6 1   
    11    5    8 ar  
    12    6    7 3   
    13    8    9 ar  
    14    8   28 1   
    15    9   29 1   
    16   10   11 ar  
    17   10   15 ar  
    18   11   13 ar  
    19   11   43 1   
    20   12   13 ar  
    21   12   14 ar  
    22   12   30 1   
    23   14   15 ar  
    24   16   17 ar  
    25   16   23 ar  
    26   16   43 1   
    27   17   18 1   
    28   17   19 ar  
    29   18   32 1   
    30   18   33 1   
    31   18   34 1   
    32   19   20 ar  
    33   19   35 1   
    34   20   21 1   
    35   20   22 ar  
    36   21   36 1   
    37   21   37 1   
    38   21   38 1   
    39   22   23 ar  
    40   22   39 1   
    41   23   24 1   
    42   24   40 1   
    43   24   41 1   
    44   24   42 1   
    45   31   43 1   
@<TRIPOS>SUBSTRUCTURE
     1 2RT         1 TEMP              0 ****  ****    0 ROOT
