@<TRIPOS>MOLECULE
2RU
   48    49     1     0     0
SMALL
bcc


@<TRIPOS>ATOM
      1 F23         0.6650   -0.5130   -0.8400 f         1 2RU     -0.221967
      2 C20         1.8800   -0.1510   -0.3150 c3        1 2RU      0.690200
      3 F21         1.7150   -0.2470    1.0440 f         1 2RU     -0.221967
      4 F22         2.7220   -1.1850   -0.6390 f         1 2RU     -0.221967
      5 C19         2.3670    1.2190   -0.7880 ca        1 2RU     -0.152300
      6 C18         3.1280    1.3170   -1.9560 ca        1 2RU     -0.052000
      7 C17         3.5600    2.5600   -2.4060 ca        1 2RU     -0.141500
      8 C24         2.0370    2.3630   -0.0640 ca        1 2RU     -0.052000
      9 C25         2.4640    3.6180   -0.4970 ca        1 2RU     -0.141500
     10 C1          3.2290    3.7230   -1.6730 ca        1 2RU      0.032600
     11 N2          3.7270    4.9680   -2.1510 n         1 2RU     -0.419100
     12 C3          3.1430    6.1690   -1.8590 c         1 2RU      0.645100
     13 O16         2.2280    6.4270   -1.0690 o         1 2RU     -0.482100
     14 N4          3.6940    7.4170   -2.5630 n4        1 2RU     -0.674800
     15 C5          4.8650    8.0200   -1.8180 c3        1 2RU      0.129500
     16 C15         4.9620    9.5220   -2.1090 c3        1 2RU     -0.137400
     17 C14         6.1580   10.1100   -1.3460 c3        1 2RU      0.091000
     18 N8          7.4010    9.4240   -1.6060 n         1 2RU     -0.478800
     19 C7          7.3340    8.0060   -1.3940 c3        1 2RU      0.091000
     20 C6          6.1830    7.3240   -2.1610 c3        1 2RU     -0.137400
     21 C9          8.3780   10.0430   -2.4120 c         1 2RU      0.657100
     22 O13         8.1380   11.1750   -2.8610 o         1 2RU     -0.564100
     23 C10         9.7150    9.3500   -2.6450 c3        1 2RU     -0.118700
     24 C12        10.5130   10.1260   -3.6750 c3        1 2RU     -0.094100
     25 C11        10.4860    9.2440   -1.3450 c3        1 2RU     -0.094100
     26 H1          3.3890    0.4050   -2.5210 ha        1 2RU      0.177000
     27 H2          4.1570    2.6150   -3.3290 ha        1 2RU      0.161500
     28 H3          1.4390    2.2790    0.8610 ha        1 2RU      0.177000
     29 H4          2.1850    4.5080    0.0920 ha        1 2RU      0.161500
     30 H5          4.4500    4.9100   -2.8380 hn        1 2RU      0.346500
     31 H6          3.9620    7.2260   -3.5310 hn        1 2RU      0.461800
     32 H7          4.6410    7.8760   -0.7160 hx        1 2RU      0.118700
     33 H8          5.0890    9.7050   -3.2080 hc        1 2RU      0.071950
     34 H9          4.0360   10.0530   -1.7650 hc        1 2RU      0.071950
     35 H10         6.2560   11.2000   -1.6280 h1        1 2RU      0.084950
     36 H11         5.9470   10.0470   -0.2400 h1        1 2RU      0.084950
     37 H12         8.2960    7.5050   -1.6910 h1        1 2RU      0.084950
     38 H13         7.1770    7.8210   -0.2900 h1        1 2RU      0.084950
     39 H14         6.1620    6.2470   -1.8520 hc        1 2RU      0.071950
     40 H15         6.3820    7.3760   -3.2630 hc        1 2RU      0.071950
     41 H16         9.5240    8.3190   -3.0570 hc        1 2RU      0.052700
     42 H17        10.7140   11.1640   -3.3120 hc        1 2RU      0.053867
     43 H18         9.9470   10.1980   -4.6340 hc        1 2RU      0.053867
     44 H19        11.4860    9.6120   -3.8620 hc        1 2RU      0.053867
     45 H20        10.6640   10.2590   -0.9130 hc        1 2RU      0.053867
     46 H21        11.4770    8.7650   -1.5370 hc        1 2RU      0.053867
     47 H22         9.9330    8.6300   -0.5950 hc        1 2RU      0.053867
     48 H42         2.9260    8.1050   -2.5630 hn        1 2RU      0.461800
@<TRIPOS>BOND
     1    1    2 1   
     2    2    3 1   
     3    2    4 1   
     4    2    5 1   
     5    5    6 ar  
     6    5    8 ar  
     7    6    7 ar  
     8    6   26 1   
     9    7   10 ar  
    10    7   27 1   
    11    8    9 ar  
    12    8   28 1   
    13    9   10 ar  
    14    9   29 1   
    15   10   11 1   
    16   11   12 1   
    17   11   30 1   
    18   12   13 2   
    19   12   14 1   
    20   14   15 1   
    21   14   31 1   
    22   14   48 1   
    23   15   16 1   
    24   15   20 1   
    25   15   32 1   
    26   16   17 1   
    27   16   33 1   
    28   16   34 1   
    29   17   18 1   
    30   17   35 1   
    31   17   36 1   
    32   18   19 1   
    33   18   21 1   
    34   19   20 1   
    35   19   37 1   
    36   19   38 1   
    37   20   39 1   
    38   20   40 1   
    39   21   22 2   
    40   21   23 1   
    41   23   24 1   
    42   23   25 1   
    43   23   41 1   
    44   24   42 1   
    45   24   43 1   
    46   24   44 1   
    47   25   45 1   
    48   25   46 1   
    49   25   47 1   
@<TRIPOS>SUBSTRUCTURE
     1 2RU         1 TEMP              0 ****  ****    0 ROOT
