@<TRIPOS>MOLECULE
2RU
   47    48     1     0     0
SMALL
bcc


@<TRIPOS>ATOM
      1 F23        -0.0160    0.0220    0.4400 f         1 2RU     -0.238633
      2 C20         1.1580   -0.2030   -0.2400 c3        1 2RU      0.692200
      3 F21         1.9430   -0.8730    0.6680 f         1 2RU     -0.238633
      4 F22         0.8240   -1.1640   -1.1650 f         1 2RU     -0.238633
      5 C19         1.7920    1.0480   -0.8270 ca        1 2RU     -0.201300
      6 C18         1.4370    1.4710   -2.1090 ca        1 2RU     -0.054000
      7 C17         1.9980    2.6230   -2.6440 ca        1 2RU     -0.175000
      8 C24         2.7140    1.7820   -0.0810 ca        1 2RU     -0.054000
      9 C25         3.2900    2.9340   -0.6040 ca        1 2RU     -0.175000
     10 C1          2.9400    3.3780   -1.8990 ca        1 2RU      0.105600
     11 N2          3.5260    4.4970   -2.5110 n         1 2RU     -0.468100
     12 C3          4.0970    5.5840   -1.8110 c         1 2RU      0.759100
     13 O16         4.2780    5.5570   -0.5730 o         1 2RU     -0.617100
     14 N4          4.4300    6.7300   -2.5620 n         1 2RU     -0.539900
     15 C5          5.2420    7.7520   -1.9230 c3        1 2RU      0.092700
     16 C15         5.1630    9.0790   -2.6930 c3        1 2RU     -0.121900
     17 C14         5.9890   10.1500   -1.9780 c3        1 2RU      0.084000
     18 N8          7.3630    9.7630   -1.7230 n         1 2RU     -0.462800
     19 C7          7.4870    8.4850   -1.0630 c3        1 2RU      0.084000
     20 C6          6.7180    7.3550   -1.7510 c3        1 2RU     -0.121900
     21 C9          8.3880   10.3460   -2.4700 c         1 2RU      0.654100
     22 O13         8.1260   11.3020   -3.2280 o         1 2RU     -0.603100
     23 C10         9.8280    9.8730   -2.2920 c3        1 2RU     -0.125700
     24 C12        10.6920   10.4450   -3.3990 c3        1 2RU     -0.089100
     25 C11        10.3520   10.2990   -0.9360 c3        1 2RU     -0.089100
     26 H1          0.7100    0.8880   -2.6980 ha        1 2RU      0.152500
     27 H2          1.7010    2.9370   -3.6560 ha        1 2RU      0.159500
     28 H3          2.9950    1.4430    0.9300 ha        1 2RU      0.152500
     29 H4          4.0130    3.4990    0.0080 ha        1 2RU      0.159500
     30 H5          3.2280    4.6600   -3.4490 hn        1 2RU      0.314500
     31 H6          4.5960    6.6160   -3.5370 hn        1 2RU      0.293500
     32 H7          4.8080    7.9100   -0.8880 h1        1 2RU      0.090700
     33 H8          5.5360    8.9450   -3.7410 hc        1 2RU      0.057700
     34 H9          4.1010    9.4320   -2.7470 hc        1 2RU      0.057700
     35 H10         5.5120   10.3690   -0.9790 h1        1 2RU      0.064450
     36 H11         5.9710   11.0940   -2.5940 h1        1 2RU      0.064450
     37 H12         7.0780    8.6080   -0.0170 h1        1 2RU      0.064450
     38 H13         8.5660    8.1840   -0.9680 h1        1 2RU      0.064450
     39 H14         6.7870    6.4380   -1.1110 hc        1 2RU      0.057700
     40 H15         7.1780    7.1240   -2.7460 hc        1 2RU      0.057700
     41 H16         9.8610    8.7500   -2.3740 hc        1 2RU      0.057700
     42 H17        11.7450   10.0960   -3.2760 hc        1 2RU      0.045700
     43 H18        10.3120   10.1170   -4.3960 hc        1 2RU      0.045700
     44 H19        10.6710   11.5620   -3.3700 hc        1 2RU      0.045700
     45 H20         9.7400    9.8590   -0.1130 hc        1 2RU      0.045700
     46 H21        11.4090    9.9580   -0.8170 hc        1 2RU      0.045700
     47 H22        10.3260   11.4120   -0.8420 hc        1 2RU      0.045700
@<TRIPOS>BOND
     1    1    2 1   
     2    2    3 1   
     3    2    4 1   
     4    2    5 1   
     5    5    6 ar  
     6    5    8 ar  
     7    6    7 ar  
     8    6   26 1   
     9    7   10 ar  
    10    7   27 1   
    11    8    9 ar  
    12    8   28 1   
    13    9   10 ar  
    14    9   29 1   
    15   10   11 1   
    16   11   12 1   
    17   11   30 1   
    18   12   13 2   
    19   12   14 1   
    20   14   15 1   
    21   14   31 1   
    22   15   16 1   
    23   15   20 1   
    24   15   32 1   
    25   16   17 1   
    26   16   33 1   
    27   16   34 1   
    28   17   18 1   
    29   17   35 1   
    30   17   36 1   
    31   18   19 1   
    32   18   21 1   
    33   19   20 1   
    34   19   37 1   
    35   19   38 1   
    36   20   39 1   
    37   20   40 1   
    38   21   22 2   
    39   21   23 1   
    40   23   24 1   
    41   23   25 1   
    42   23   41 1   
    43   24   42 1   
    44   24   43 1   
    45   24   44 1   
    46   25   45 1   
    47   25   46 1   
    48   25   47 1   
@<TRIPOS>SUBSTRUCTURE
     1 2RU         1 TEMP              0 ****  ****    0 ROOT
