@<TRIPOS>MOLECULE
2RU
   48    49     1     0     0
SMALL
bcc


@<TRIPOS>ATOM
      1 F23         0.6690   -0.5200   -0.8660 f         1 2RU     -0.221967
      2 C20         1.8850   -0.1600   -0.3410 c3        1 2RU      0.690200
      3 F21         1.7220   -0.2630    1.0180 f         1 2RU     -0.221967
      4 F22         2.7270   -1.1920   -0.6710 f         1 2RU     -0.221967
      5 C19         2.3710    1.2130   -0.8080 ca        1 2RU     -0.152300
      6 C18         3.1290    1.3170   -1.9760 ca        1 2RU     -0.052000
      7 C17         3.5590    2.5630   -2.4210 ca        1 2RU     -0.141500
      8 C24         2.0420    2.3530   -0.0760 ca        1 2RU     -0.052000
      9 C25         2.4670    3.6100   -0.5040 ca        1 2RU     -0.141500
     10 C1          3.2300    3.7210   -1.6810 ca        1 2RU      0.032600
     11 N2          3.7270    4.9700   -2.1540 ns        1 2RU     -0.419100
     12 C3          3.1420    6.1680   -1.8540 c         1 2RU      0.645100
     13 O16         2.2290    6.4220   -1.0620 o         1 2RU     -0.482100
     14 N4          3.6920    7.4200   -2.5530 ny        1 2RU     -0.675800
     15 C5          4.8650    8.0180   -1.8080 c3        1 2RU      0.129500
     16 C15         4.9600    9.5230   -2.0880 c3        1 2RU     -0.137400
     17 C14         6.1590   10.1070   -1.3260 c3        1 2RU      0.091000
     18 N8          7.4020    9.4230   -1.5950 n         1 2RU     -0.478800
     19 C7          7.3360    8.0030   -1.3930 c3        1 2RU      0.091000
     20 C6          6.1820    7.3260   -2.1600 c3        1 2RU     -0.137400
     21 C9          8.3750   10.0470   -2.4000 c         1 2RU      0.657100
     22 O13         8.1330   11.1830   -2.8410 o         1 2RU     -0.564100
     23 C10         9.7110    9.3570   -2.6430 c3        1 2RU     -0.118700
     24 C12        10.5060   10.1410   -3.6700 c3        1 2RU     -0.094100
     25 C11        10.4870    9.2420   -1.3470 c3        1 2RU     -0.094100
     26 H1          3.3890    0.4090   -2.5470 ha        1 2RU      0.177000
     27 H2          4.1550    2.6220   -3.3460 ha        1 2RU      0.161500
     28 H3          1.4460    2.2640    0.8490 ha        1 2RU      0.177000
     29 H4          2.1900    4.4970    0.0900 ha        1 2RU      0.161500
     30 H5          4.4490    4.9160   -2.8430 hn        1 2RU      0.346500
     31 H6          2.9240    8.1080   -2.5470 hn        1 2RU      0.461800
     32 H7          4.6450    7.8670   -0.7060 hx        1 2RU      0.118700
     33 H8          4.0350   10.0510   -1.7370 hc        1 2RU      0.071950
     34 H9          5.0830    9.7140   -3.1860 hc        1 2RU      0.071950
     35 H10         6.2550   11.1980   -1.6000 h1        1 2RU      0.084950
     36 H11         5.9520   10.0350   -0.2190 h1        1 2RU      0.084950
     37 H12         8.2970    7.5040   -1.6970 h1        1 2RU      0.084950
     38 H13         7.1830    7.8100   -0.2900 h1        1 2RU      0.084950
     39 H14         6.3770    7.3860   -3.2620 hc        1 2RU      0.071950
     40 H15         6.1620    6.2470   -1.8580 hc        1 2RU      0.071950
     41 H16         9.5200    8.3290   -3.0620 hc        1 2RU      0.052700
     42 H17         9.9360   10.2190   -4.6270 hc        1 2RU      0.053867
     43 H18        11.4780    9.6290   -3.8640 hc        1 2RU      0.053867
     44 H19        10.7070   11.1760   -3.3000 hc        1 2RU      0.053867
     45 H20        11.4780    8.7650   -1.5450 hc        1 2RU      0.053867
     46 H21         9.9370    8.6220   -0.5990 hc        1 2RU      0.053867
     47 H22        10.6660   10.2540   -0.9080 hc        1 2RU      0.053867
     48 H42         3.9570    7.2350   -3.5220 hn        1 2RU      0.461800
@<TRIPOS>BOND
     1    1    2 1   
     2    2    3 1   
     3    2    4 1   
     4    2    5 1   
     5    5    6 ar  
     6    5    8 ar  
     7    6    7 ar  
     8    6   26 1   
     9    7   10 ar  
    10    7   27 1   
    11    8    9 ar  
    12    8   28 1   
    13    9   10 ar  
    14    9   29 1   
    15   10   11 1   
    16   11   12 1   
    17   11   30 1   
    18   12   13 2   
    19   12   14 1   
    20   14   15 1   
    21   14   31 1   
    22   14   48 1   
    23   15   16 1   
    24   15   20 1   
    25   15   32 1   
    26   16   17 1   
    27   16   33 1   
    28   16   34 1   
    29   17   18 1   
    30   17   35 1   
    31   17   36 1   
    32   18   19 1   
    33   18   21 1   
    34   19   20 1   
    35   19   37 1   
    36   19   38 1   
    37   20   39 1   
    38   20   40 1   
    39   21   22 2   
    40   21   23 1   
    41   23   24 1   
    42   23   25 1   
    43   23   41 1   
    44   24   42 1   
    45   24   43 1   
    46   24   44 1   
    47   25   45 1   
    48   25   46 1   
    49   25   47 1   
@<TRIPOS>SUBSTRUCTURE
     1 2RU         1 TEMP              0 ****  ****    0 ROOT
