@<TRIPOS>MOLECULE
2RV
   45    46     1     0     0
SMALL
bcc


@<TRIPOS>ATOM
      1 F23         1.9350    2.2900    0.4120 f         1 2RV     -0.218300
      2 C20         1.7900    0.9410    0.4250 c3        1 2RV      0.817700
      3 F21         2.5960    0.4150    1.3790 f         1 2RV     -0.218300
      4 F22         0.4990    0.6410    0.7180 f         1 2RV     -0.218300
      5 O19         2.2090    0.3450   -0.7740 os        1 2RV     -0.364900
      6 C18         1.5930    0.7680   -1.9530 ca        1 2RV      0.049100
      7 C17         0.3150    0.3120   -2.2900 ca        1 2RV     -0.094500
      8 C16        -0.2250    0.6320   -3.5300 ca        1 2RV     -0.158000
      9 C24         2.3440    1.5420   -2.8440 ca        1 2RV     -0.094500
     10 C25         1.8100    1.8520   -4.0880 ca        1 2RV     -0.158000
     11 C1          0.5140    1.4070   -4.4520 ca        1 2RV      0.079600
     12 N2         -0.0080    1.8160   -5.6920 n         1 2RV     -0.463100
     13 C3         -0.9640    1.0750   -6.4250 c         1 2RV      0.755100
     14 O15        -1.5790    0.1050   -5.9270 o         1 2RV     -0.618100
     15 N4         -1.1880    1.4580   -7.7650 n         1 2RV     -0.538900
     16 C5         -2.3410    0.8950   -8.4480 c3        1 2RV      0.091700
     17 C14        -2.2160    1.0700   -9.9700 c3        1 2RV     -0.122900
     18 C13        -3.4150    0.4270  -10.6700 c3        1 2RV      0.084000
     19 N8         -4.7010    0.8830  -10.1820 n         1 2RV     -0.463800
     20 C7         -4.8360    0.8150   -8.7460 c3        1 2RV      0.084000
     21 C6         -3.6860    1.4760   -7.9820 c3        1 2RV     -0.122900
     22 C9         -5.4710    1.7420  -10.9700 c         1 2RV      0.651100
     23 O12        -5.1270    1.9810  -12.1440 o         1 2RV     -0.602100
     24 C10        -6.7620    2.3040  -10.4020 c3        1 2RV     -0.144400
     25 C11        -7.5500    3.0310  -11.4620 c3        1 2RV     -0.087100
     26 H1         -0.2600   -0.2930   -1.5710 ha        1 2RV      0.156000
     27 H2         -1.2320    0.2620   -3.7890 ha        1 2RV      0.158000
     28 H3          3.3500    1.8860   -2.5620 ha        1 2RV      0.156000
     29 H4          2.4120    2.4550   -4.7860 ha        1 2RV      0.158000
     30 H5          0.5890    2.4270   -6.2080 hn        1 2RV      0.311500
     31 H6         -0.9690    2.3940   -8.0230 hn        1 2RV      0.292500
     32 H7         -2.3470   -0.2140   -8.2130 h1        1 2RV      0.090700
     33 H8         -2.1570    2.1570  -10.2340 hc        1 2RV      0.057950
     34 H9         -1.2840    0.5720  -10.3410 hc        1 2RV      0.057950
     35 H10        -3.3410    0.6290  -11.7770 h1        1 2RV      0.063950
     36 H11        -3.3730   -0.6890  -10.5100 h1        1 2RV      0.063950
     37 H12        -4.8670   -0.2790   -8.4640 h1        1 2RV      0.063950
     38 H13        -5.8040    1.2790   -8.4120 h1        1 2RV      0.063950
     39 H14        -3.8230    1.2720   -6.8880 hc        1 2RV      0.057950
     40 H15        -3.7060    2.5850   -8.1370 hc        1 2RV      0.057950
     41 H16        -6.5090    3.0100   -9.5670 hc        1 2RV      0.062200
     42 H17        -7.3800    1.4680   -9.9790 hc        1 2RV      0.062200
     43 H18        -6.9470    3.8670  -11.8940 hc        1 2RV      0.046700
     44 H19        -8.4860    3.4480  -11.0200 hc        1 2RV      0.046700
     45 H20        -7.8180    2.3370  -12.2950 hc        1 2RV      0.046700
@<TRIPOS>BOND
     1    1    2 1   
     2    2    3 1   
     3    2    4 1   
     4    2    5 1   
     5    5    6 1   
     6    6    7 ar  
     7    6    9 ar  
     8    7    8 ar  
     9    7   26 1   
    10    8   11 ar  
    11    8   27 1   
    12    9   10 ar  
    13    9   28 1   
    14   10   11 ar  
    15   10   29 1   
    16   11   12 1   
    17   12   13 1   
    18   12   30 1   
    19   13   14 2   
    20   13   15 1   
    21   15   16 1   
    22   15   31 1   
    23   16   17 1   
    24   16   21 1   
    25   16   32 1   
    26   17   18 1   
    27   17   33 1   
    28   17   34 1   
    29   18   19 1   
    30   18   35 1   
    31   18   36 1   
    32   19   20 1   
    33   19   22 1   
    34   20   21 1   
    35   20   37 1   
    36   20   38 1   
    37   21   39 1   
    38   21   40 1   
    39   22   23 2   
    40   22   24 1   
    41   24   25 1   
    42   24   41 1   
    43   24   42 1   
    44   25   43 1   
    45   25   44 1   
    46   25   45 1   
@<TRIPOS>SUBSTRUCTURE
     1 2RV         1 TEMP              0 ****  ****    0 ROOT
