@<TRIPOS>MOLECULE
2RV
   46    47     1     0     0
SMALL
bcc


@<TRIPOS>ATOM
      1 F23         1.1740   -0.5480    0.0950 f         1 2RV     -0.199633
      2 C20         1.7230    0.6900    0.1200 c3        1 2RV      0.830700
      3 F21         1.7350    1.1670    1.3850 f         1 2RV     -0.199633
      4 F22         2.9860    0.6340   -0.3680 f         1 2RV     -0.199633
      5 O19         0.9340    1.6190   -0.5880 os        1 2RV     -0.362900
      6 C18         0.7090    1.4670   -1.9430 ca        1 2RV      0.158100
      7 C17         1.1830    0.4120   -2.7270 ca        1 2RV     -0.135000
      8 C16         0.8820    0.3730   -4.0860 ca        1 2RV     -0.096000
      9 C24        -0.0750    2.4930   -2.5070 ca        1 2RV     -0.135000
     10 C25        -0.3800    2.4510   -3.8580 ca        1 2RV     -0.096000
     11 C1          0.1010    1.3910   -4.6620 ca        1 2RV     -0.029400
     12 N2         -0.1900    1.4220   -6.0570 ns        1 2RV     -0.406100
     13 C3         -0.3460    0.2820   -6.7950 c         1 2RV      0.639100
     14 O15        -0.1240   -0.8930   -6.4830 o         1 2RV     -0.487100
     15 N4         -0.7750    0.4390   -8.2620 ny        1 2RV     -0.675800
     16 C5         -2.2770    0.3890   -8.4160 c3        1 2RV      0.128500
     17 C14        -2.6530   -0.0770   -9.8270 c3        1 2RV     -0.136400
     18 C13        -4.1830   -0.1200   -9.9570 c3        1 2RV      0.090500
     19 N8         -4.8300    1.1180   -9.5990 n         1 2RV     -0.480800
     20 C7         -4.4550    1.6230   -8.3080 c3        1 2RV      0.090500
     21 C6         -2.9300    1.7370   -8.1080 c3        1 2RV     -0.136400
     22 C9         -5.3600    1.9450  -10.6120 c         1 2RV      0.655100
     23 O12        -5.2660    1.5730  -11.7930 o         1 2RV     -0.561100
     24 C10        -6.0800    3.2160  -10.2130 c3        1 2RV     -0.139400
     25 C11        -6.8410    3.7920  -11.3800 c3        1 2RV     -0.094100
     26 H1          1.7960   -0.3910   -2.2840 ha        1 2RV      0.178000
     27 H2          1.2590   -0.4700   -4.6900 ha        1 2RV      0.157000
     28 H3         -0.4360    3.3150   -1.8680 ha        1 2RV      0.178000
     29 H4         -0.9920    3.2610   -4.2880 ha        1 2RV      0.157000
     30 H5         -0.4920    2.3030   -6.4170 hn        1 2RV      0.343500
     31 H6         -0.4120    1.2970   -8.6820 hn        1 2RV      0.460800
     32 H7         -2.6420   -0.3840   -7.6690 hx        1 2RV      0.120700
     33 H8         -2.2290    0.6180  -10.5990 hc        1 2RV      0.070950
     34 H9         -2.2590   -1.1080  -10.0230 hc        1 2RV      0.070950
     35 H10        -4.5790   -0.9310   -9.2790 h1        1 2RV      0.084450
     36 H11        -4.4400   -0.3900  -11.0230 h1        1 2RV      0.084450
     37 H12        -4.9060    2.6380   -8.1260 h1        1 2RV      0.084450
     38 H13        -4.8590    0.9180   -7.5220 h1        1 2RV      0.084450
     39 H14        -2.5210    2.5350   -8.7800 hc        1 2RV      0.070950
     40 H15        -2.7490    2.0370   -7.0450 hc        1 2RV      0.070950
     41 H16        -6.7900    2.9980   -9.3700 hc        1 2RV      0.065700
     42 H17        -5.3210    3.9590   -9.8500 hc        1 2RV      0.065700
     43 H18        -7.6170    3.0720  -11.7380 hc        1 2RV      0.057033
     44 H19        -7.3430    4.7410  -11.0710 hc        1 2RV      0.057033
     45 H20        -6.1520    4.0060  -12.2330 hc        1 2RV      0.057033
     46 H42        -0.3740   -0.3680   -8.7640 hn        1 2RV      0.460800
@<TRIPOS>BOND
     1    1    2 1   
     2    2    3 1   
     3    2    4 1   
     4    2    5 1   
     5    5    6 1   
     6    6    7 ar  
     7    6    9 ar  
     8    7    8 ar  
     9    7   26 1   
    10    8   11 ar  
    11    8   27 1   
    12    9   10 ar  
    13    9   28 1   
    14   10   11 ar  
    15   10   29 1   
    16   11   12 1   
    17   12   13 1   
    18   12   30 1   
    19   13   14 2   
    20   13   15 1   
    21   15   16 1   
    22   15   31 1   
    23   15   46 1   
    24   16   17 1   
    25   16   21 1   
    26   16   32 1   
    27   17   18 1   
    28   17   33 1   
    29   17   34 1   
    30   18   19 1   
    31   18   35 1   
    32   18   36 1   
    33   19   20 1   
    34   19   22 1   
    35   20   21 1   
    36   20   37 1   
    37   20   38 1   
    38   21   39 1   
    39   21   40 1   
    40   22   23 2   
    41   22   24 1   
    42   24   25 1   
    43   24   41 1   
    44   24   42 1   
    45   25   43 1   
    46   25   44 1   
    47   25   45 1   
@<TRIPOS>SUBSTRUCTURE
     1 2RV         1 TEMP              0 ****  ****    0 ROOT
