@<TRIPOS>MOLECULE
2RV
   46    47     1     0     0
SMALL
bcc


@<TRIPOS>ATOM
      1 F23         1.0950   -0.4980    0.1440 f         1 2RV     -0.199633
      2 C20         1.7120    0.7080    0.1270 c3        1 2RV      0.830700
      3 F21         1.7550    1.2250    1.3750 f         1 2RV     -0.199633
      4 F22         2.9680    0.5660   -0.3610 f         1 2RV     -0.199633
      5 O19         0.9730    1.6570   -0.6090 os        1 2RV     -0.362900
      6 C18         0.7340    1.4720   -1.9580 ca        1 2RV      0.158100
      7 C17         1.1460    0.3670   -2.7080 ca        1 2RV     -0.135000
      8 C16         0.8370    0.3010   -4.0650 ca        1 2RV     -0.096000
      9 C24         0.0050    2.5210   -2.5540 ca        1 2RV     -0.135000
     10 C25        -0.3080    2.4520   -3.9020 ca        1 2RV     -0.096000
     11 C1          0.1110    1.3410   -4.6710 ca        1 2RV     -0.029400
     12 N2         -0.1850    1.3410   -6.0660 n         1 2RV     -0.406100
     13 C3         -0.4060    0.1880   -6.7650 c         1 2RV      0.639100
     14 O15        -0.2480   -0.9870   -6.4160 o         1 2RV     -0.487100
     15 N4         -0.8330    0.3200   -8.2360 n4        1 2RV     -0.675800
     16 C5         -2.3360    0.3460   -8.3830 c3        1 2RV      0.128500
     17 C14        -2.7430   -0.1420   -9.7790 c3        1 2RV     -0.136400
     18 C13        -4.2730   -0.1080   -9.9030 c3        1 2RV      0.090500
     19 N8         -4.8510    1.1740   -9.5820 n         1 2RV     -0.480800
     20 C7         -4.4440    1.6980   -8.3090 c3        1 2RV      0.090500
     21 C6         -2.9150    1.7360   -8.1170 c3        1 2RV     -0.136400
     22 C9         -5.3400    1.9960  -10.6190 c         1 2RV      0.655100
     23 O12        -5.2710    1.5840  -11.7880 o         1 2RV     -0.561100
     24 C10        -5.9900    3.3150  -10.2590 c3        1 2RV     -0.139400
     25 C11        -6.7230    3.8960  -11.4430 c3        1 2RV     -0.094100
     26 H1          1.7150   -0.4530   -2.2400 ha        1 2RV      0.178000
     27 H2          1.1640   -0.5810   -4.6410 ha        1 2RV      0.157000
     28 H3         -0.3080    3.3820   -1.9410 ha        1 2RV      0.178000
     29 H4         -0.8760    3.2790   -4.3570 ha        1 2RV      0.157000
     30 H5         -0.4400    2.2260   -6.4540 hn        1 2RV      0.343500
     31 H6         -0.4260    1.1440   -8.6850 hn        1 2RV      0.460800
     32 H7         -2.7380   -0.3820   -7.6120 hx        1 2RV      0.120700
     33 H8         -2.2860    0.5040  -10.5730 hc        1 2RV      0.070950
     34 H9         -2.4050   -1.1990   -9.9430 hc        1 2RV      0.070950
     35 H10        -4.7090   -0.8740   -9.1990 h1        1 2RV      0.084450
     36 H11        -4.5500   -0.3970  -10.9590 h1        1 2RV      0.084450
     37 H12        -4.8820    1.0410   -7.5000 h1        1 2RV      0.084450
     38 H13        -4.8400    2.7410   -8.1570 h1        1 2RV      0.084450
     39 H14        -2.7130    2.0590   -7.0640 hc        1 2RV      0.070950
     40 H15        -2.4670    2.4900   -8.8150 hc        1 2RV      0.070950
     41 H16        -6.7080    3.1630   -9.4090 hc        1 2RV      0.065700
     42 H17        -5.1910    4.0280   -9.9210 hc        1 2RV      0.065700
     43 H18        -7.1720    4.8790  -11.1620 hc        1 2RV      0.057033
     44 H19        -6.0260    4.0460  -12.3030 hc        1 2RV      0.057033
     45 H20        -7.5370    3.2080  -11.7760 hc        1 2RV      0.057033
     46 H42        -0.4780   -0.5230   -8.7120 hn        1 2RV      0.460800
@<TRIPOS>BOND
     1    1    2 1   
     2    2    3 1   
     3    2    4 1   
     4    2    5 1   
     5    5    6 1   
     6    6    7 ar  
     7    6    9 ar  
     8    7    8 ar  
     9    7   26 1   
    10    8   11 ar  
    11    8   27 1   
    12    9   10 ar  
    13    9   28 1   
    14   10   11 ar  
    15   10   29 1   
    16   11   12 1   
    17   12   13 1   
    18   12   30 1   
    19   13   14 2   
    20   13   15 1   
    21   15   16 1   
    22   15   31 1   
    23   15   46 1   
    24   16   17 1   
    25   16   21 1   
    26   16   32 1   
    27   17   18 1   
    28   17   33 1   
    29   17   34 1   
    30   18   19 1   
    31   18   35 1   
    32   18   36 1   
    33   19   20 1   
    34   19   22 1   
    35   20   21 1   
    36   20   37 1   
    37   20   38 1   
    38   21   39 1   
    39   21   40 1   
    40   22   23 2   
    41   22   24 1   
    42   24   25 1   
    43   24   41 1   
    44   24   42 1   
    45   25   43 1   
    46   25   44 1   
    47   25   45 1   
@<TRIPOS>SUBSTRUCTURE
     1 2RV         1 TEMP              0 ****  ****    0 ROOT
