@<TRIPOS>MOLECULE
2RW
   56    59     1     0     0
SMALL
bcc


@<TRIPOS>ATOM
      1 N1          1.4230   -3.8260    6.1050 nb        1 2RW     -0.691000
      2 C2          2.0790   -3.8100    4.9350 ca        1 2RW      0.601900
      3 N3          2.5140   -2.7290    4.1980 nb        1 2RW     -0.673000
      4 C4          2.1310   -1.5510    4.6980 ca        1 2RW      0.416800
      5 C5          1.2600   -1.4160    5.9130 ca        1 2RW     -0.033200
      6 C6          1.0690   -2.6030    6.6320 ca        1 2RW      0.418200
      7 N6          0.5970   -2.5370    8.0170 n4        1 2RW     -0.812300
      8 N7          0.9440   -0.0800    6.1180 ne        1 2RW     -0.689800
      9 C8          1.6380    0.6380    5.2090 c1        1 2RW      0.109400
     10 N9          2.3820   -0.2030    4.3020 nh        1 2RW     -0.269200
     11 C1'         3.7250    0.1460    3.9090 c3        1 2RW      0.212800
     12 C2'         3.9650    1.6830    3.7620 c3        1 2RW      0.092100
     13 O2'         4.3190    2.0150    2.4430 oh        1 2RW     -0.576800
     14 C3'         5.0700    2.0110    4.7990 c3        1 2RW      0.077100
     15 O3'         6.3090    2.2690    4.1660 oh        1 2RW     -0.594800
     16 O4'         4.6890   -0.3210    4.8900 os        1 2RW     -0.419600
     17 C4'         5.1450    0.7590    5.7020 c3        1 2RW      0.110100
     18 C5'         4.3270    0.9800    6.9720 c3        1 2RW      0.130400
     19 O5'         4.2660   -0.2000    7.7390 os        1 2RW     -0.572200
     20 PA          3.5460    0.0090    9.1690 p5        1 2RW      1.802500
     21 O1A         1.9880    0.0660    8.8070 oh        1 2RW     -0.814400
     22 O2A         4.0210    1.2240    9.8100 o         1 2RW     -0.869300
     23 O3A         3.5530   -1.3780    9.8870 os        1 2RW     -0.778800
     24 PB          3.1560   -2.8150   10.6520 p5        1 2RW      1.615800
     25 O1B         3.9690   -3.0120   11.8460 o         1 2RW     -0.850000
     26 O2B         1.6760   -2.8480   10.5490 o         1 2RW     -0.850000
     27 O5D         3.5580   -3.8810    9.4690 os        1 2RW     -0.594200
     28 C5D         3.4560   -5.2340    9.8040 c3        1 2RW      0.189400
     29 O4D         2.5150   -7.2240    8.8670 os        1 2RW     -0.422600
     30 C1D         1.3690   -8.0500    9.0870 c3        1 2RW      0.131400
     31 C2D         0.3290   -7.2570    9.8680 c3        1 2RW     -0.122400
     32 O3D         0.0160   -4.8830    9.6820 oh        1 2RW     -0.642800
     33 C3D         0.9510   -5.8700   10.0790 c3        1 2RW      0.138100
     34 C4D         2.2000   -5.8540    9.1700 c3        1 2RW      0.074100
     35 H1          2.3490   -4.8020    4.5200 h5        1 2RW      0.045100
     36 H2          0.4920   -1.5500    8.2940 hn        1 2RW      0.475133
     37 H3          1.2990   -2.9710    8.6720 hn        1 2RW      0.475133
     38 H4          1.6510    0.8180    8.3270 ho        1 2RW      0.490000
     39 H5          3.9900   -0.4140    2.9660 h2        1 2RW      0.090700
     40 H6          3.0250    2.2700    3.9700 h1        1 2RW      0.141700
     41 H7          5.2210    1.7090    2.2870 ho        1 2RW      0.395000
     42 H8          4.8340    2.9480    5.3670 h1        1 2RW      0.099700
     43 H9          6.6770    1.4180    3.8950 ho        1 2RW      0.401000
     44 H10         6.2000    0.4840    5.9760 h1        1 2RW      0.085700
     45 H11         3.2760    1.2920    6.7150 h1        1 2RW      0.059200
     46 H12         4.8210    1.7810    7.5930 h1        1 2RW      0.059200
     47 H15         4.3580   -5.7590    9.3810 h1        1 2RW      0.044200
     48 H16         3.4470   -5.3570   10.9220 h1        1 2RW      0.044200
     49 H20        -0.6260   -7.1680    9.2940 hc        1 2RW      0.055200
     50 H21         0.1160   -4.1380   10.2980 ho        1 2RW      0.452000
     51 H22         1.2380   -5.7260   11.1550 h1        1 2RW      0.051700
     52 H23         1.9660   -5.3310    8.2040 h1        1 2RW      0.090700
     53 H17         1.7350   -8.9470    9.6480 h1        1 2RW      0.036200
     54 H18         0.9810   -8.3670    8.0840 h1        1 2RW      0.036200
     55 H63        -0.2820   -3.0410    8.1340 hn        1 2RW      0.475133
     56 H19         0.1030   -7.7410   10.8480 hc        1 2RW      0.055200
@<TRIPOS>BOND
     1    1    2 ar  
     2    1    6 ar  
     3    2    3 ar  
     4    2   35 1   
     5    3    4 ar  
     6    4    5 ar  
     7    4   10 1   
     8    5    6 ar  
     9    5    8 1   
    10    6    7 1   
    11    7   36 1   
    12    7   37 1   
    13    7   55 1   
    14    8    9 2   
    15    9   10 2   
    16   10   11 1   
    17   11   12 1   
    18   11   16 1   
    19   11   39 1   
    20   12   13 1   
    21   12   14 1   
    22   12   40 1   
    23   13   41 1   
    24   14   15 1   
    25   14   17 1   
    26   14   42 1   
    27   15   43 1   
    28   16   17 1   
    29   17   18 1   
    30   17   44 1   
    31   18   19 1   
    32   18   45 1   
    33   18   46 1   
    34   19   20 1   
    35   20   21 1   
    36   20   22 2   
    37   20   23 1   
    38   21   38 1   
    39   23   24 1   
    40   24   25 1   
    41   24   26 1   
    42   24   27 1   
    43   27   28 1   
    44   28   34 1   
    45   28   47 1   
    46   28   48 1   
    47   29   30 1   
    48   29   34 1   
    49   30   31 1   
    50   30   53 1   
    51   30   54 1   
    52   31   33 1   
    53   31   49 1   
    54   31   56 1   
    55   32   33 1   
    56   32   50 1   
    57   33   34 1   
    58   33   51 1   
    59   34   52 1   
@<TRIPOS>SUBSTRUCTURE
     1 2RW         1 TEMP              0 ****  ****    0 ROOT
