@<TRIPOS>MOLECULE
2RW
   55    58     1     0     0
SMALL
bcc


@<TRIPOS>ATOM
      1 N1         -0.1770    0.6830    0.4070 nb        1 2RW     -0.803000
      2 C2          1.0670    1.2200    0.5630 ca        1 2RW      0.654900
      3 N3          1.9470    1.1070    1.5800 nb        1 2RW     -0.711000
      4 C4          1.4830    0.3190    2.6000 ca        1 2RW      0.445800
      5 C5          0.1670   -0.3220    2.5770 ca        1 2RW     -0.212200
      6 C6         -0.6590   -0.0880    1.4330 ca        1 2RW      0.715200
      7 N6         -1.9530   -0.5920    1.3990 nv        1 2RW     -0.938500
      8 N7         -0.0140   -1.0800    3.7420 nc        1 2RW     -0.575100
      9 C8          1.1200   -0.9140    4.4430 cd        1 2RW      0.443700
     10 N9          2.0600   -0.0620    3.8170 na        1 2RW     -0.260000
     11 C1'         3.4010    0.2640    4.2780 c3        1 2RW      0.213800
     12 C2'         3.4270    1.3230    5.4330 c3        1 2RW      0.108100
     13 O2'         4.3470    2.3330    5.0890 oh        1 2RW     -0.601800
     14 C3'         3.7910    0.5080    6.6920 c3        1 2RW      0.122100
     15 O3'         4.8390    1.1690    7.3630 oh        1 2RW     -0.651800
     16 O4'         4.0460   -0.9120    4.7480 os        1 2RW     -0.422600
     17 C4'         4.2460   -0.8730    6.1790 c3        1 2RW      0.057100
     18 C5'         3.5060   -2.0570    6.8330 c3        1 2RW      0.213400
     19 O5'         4.2600   -2.6110    7.8500 os        1 2RW     -0.569200
     20 PA          3.8200   -2.1410    9.4030 p5        1 2RW      1.636800
     21 O1A         2.5470   -2.8350    9.6890 o         1 2RW     -0.904000
     22 O2A         3.8980   -0.6660    9.2620 o         1 2RW     -0.904000
     23 O3A         4.9930   -2.7750   10.2810 os        1 2RW     -0.813800
     24 PB          6.0780   -3.4910   11.2910 p5        1 2RW      1.590800
     25 O1B         6.5330   -2.5150   12.2930 o         1 2RW     -0.862500
     26 O2B         6.9760   -4.3610   10.5100 o         1 2RW     -0.862500
     27 O5D         5.0150   -4.4920   12.0810 os        1 2RW     -0.588200
     28 C5D         4.7420   -5.7290   11.5170 c3        1 2RW      0.182400
     29 O4D         2.9630   -7.2930   11.0720 os        1 2RW     -0.438600
     30 C1D         2.2720   -7.7300   12.2400 c3        1 2RW      0.137400
     31 C2D         1.7870   -6.5110   13.0160 c3        1 2RW     -0.112400
     32 O3D         1.1870   -4.6380   11.6810 oh        1 2RW     -0.658800
     33 C3D         2.3110   -5.2930   12.2390 c3        1 2RW      0.145100
     34 C4D         3.2510   -5.8810   11.1680 c3        1 2RW      0.075100
     35 H1          1.4070    1.8440   -0.2900 h5        1 2RW      0.035100
     36 H2         -2.3980   -0.6510    0.5140 hn        1 2RW      0.418800
     37 H3         -2.1370   -1.3340    2.0340 hn        1 2RW      0.418800
     38 H4          1.3540   -1.3850    5.4130 h5        1 2RW      0.104800
     39 H5          3.9930    0.6260    3.3860 h2        1 2RW      0.105700
     40 H6          2.4420    1.8470    5.5510 h1        1 2RW      0.077700
     41 H7          5.1960    2.1200    5.5020 ho        1 2RW      0.431000
     42 H8          2.9000    0.4160    7.3710 h1        1 2RW      0.096700
     43 H9          4.8660    0.7900    8.2670 ho        1 2RW      0.499000
     44 H10         5.3540   -1.0040    6.3270 h1        1 2RW      0.100700
     45 H11         3.3460   -2.8440    6.0410 h1        1 2RW      0.014700
     46 H12         2.5050   -1.7200    7.2260 h1        1 2RW      0.014700
     47 H15         5.0000   -6.5300   12.2710 h1        1 2RW      0.028200
     48 H16         5.3610   -5.8900   10.5900 h1        1 2RW      0.028200
     49 H19         2.1940   -6.5110   14.0550 hc        1 2RW      0.040700
     50 H20         0.6710   -6.4850   13.0720 hc        1 2RW      0.040700
     51 H21         1.5210   -3.9950   11.0270 ho        1 2RW      0.480000
     52 H22         2.8720   -4.5780   12.8990 h1        1 2RW      0.082700
     53 H23         3.0240   -5.4540   10.1540 h1        1 2RW      0.105700
     54 H17         1.4270   -8.3730   11.8830 h1        1 2RW      0.012700
     55 H18         2.9780   -8.3540   12.8480 h1        1 2RW      0.012700
@<TRIPOS>BOND
     1    1    2 ar  
     2    1    6 ar  
     3    2    3 ar  
     4    2   35 1   
     5    3    4 ar  
     6    4    5 ar  
     7    4   10 1   
     8    5    6 ar  
     9    5    8 1   
    10    6    7 1   
    11    7   36 1   
    12    7   37 1   
    13    8    9 2   
    14    9   10 1   
    15    9   38 1   
    16   10   11 1   
    17   11   12 1   
    18   11   16 1   
    19   11   39 1   
    20   12   13 1   
    21   12   14 1   
    22   12   40 1   
    23   13   41 1   
    24   14   15 1   
    25   14   17 1   
    26   14   42 1   
    27   15   43 1   
    28   16   17 1   
    29   17   18 1   
    30   17   44 1   
    31   18   19 1   
    32   18   45 1   
    33   18   46 1   
    34   19   20 1   
    35   20   21 1   
    36   20   22 1   
    37   20   23 1   
    38   23   24 1   
    39   24   25 1   
    40   24   26 1   
    41   24   27 1   
    42   27   28 1   
    43   28   34 1   
    44   28   47 1   
    45   28   48 1   
    46   29   30 1   
    47   29   34 1   
    48   30   31 1   
    49   30   54 1   
    50   30   55 1   
    51   31   33 1   
    52   31   49 1   
    53   31   50 1   
    54   32   33 1   
    55   32   51 1   
    56   33   34 1   
    57   33   52 1   
    58   34   53 1   
@<TRIPOS>SUBSTRUCTURE
     1 2RW         1 TEMP              0 ****  ****    0 ROOT
