@<TRIPOS>MOLECULE
2RW
   55    58     1     0     0
SMALL
bcc


@<TRIPOS>ATOM
      1 N1         -0.1280   -0.3610    0.9910 nb        1 2RW     -0.802000
      2 C2          1.2180   -0.4500    0.7990 ca        1 2RW      0.644900
      3 N3          2.2340   -0.4050    1.6870 nb        1 2RW     -0.719000
      4 C4          1.8050   -0.2490    2.9780 ca        1 2RW      0.437800
      5 C5          0.3940   -0.1260    3.3370 ca        1 2RW     -0.202200
      6 C6         -0.5640   -0.1750    2.2790 ca        1 2RW      0.701200
      7 N6         -1.9140    0.0290    2.5550 nh        1 2RW     -0.931500
      8 N7          0.2680    0.0100    4.7270 nc        1 2RW     -0.576100
      9 C8          1.5210   -0.0280    5.2080 cd        1 2RW      0.456700
     10 N9          2.5070   -0.1620    4.1900 na        1 2RW     -0.278000
     11 C1'         3.9470   -0.2830    4.3130 c3        1 2RW      0.217800
     12 C2'         4.5880    0.8310    5.2070 c3        1 2RW      0.113100
     13 O2'         5.7630    1.2920    4.5780 oh        1 2RW     -0.603800
     14 C3'         4.8080    0.1250    6.5550 c3        1 2RW      0.084100
     15 O3'         6.0760    0.4560    7.0750 oh        1 2RW     -0.637800
     16 O4'         4.3290   -1.5390    4.8770 os        1 2RW     -0.424600
     17 C4'         4.7040   -1.3890    6.2620 c3        1 2RW      0.064100
     18 C5'         3.6630   -2.1290    7.1300 c3        1 2RW      0.193400
     19 O5'         3.9160   -2.0020    8.4820 os        1 2RW     -0.585200
     20 PA          3.1440   -0.7710    9.3240 p5        1 2RW      1.621800
     21 O1A         2.0780   -0.3280    8.3920 o         1 2RW     -0.896000
     22 O2A         4.2670    0.1580    9.5820 o         1 2RW     -0.896000
     23 O3A         2.6190   -1.5710   10.6050 os        1 2RW     -0.814800
     24 PB          2.1230   -2.3130   11.9840 p5        1 2RW      1.610800
     25 O1B         1.2340   -1.4160   12.7320 o         1 2RW     -0.873500
     26 O2B         3.2640   -3.0480   12.5750 o         1 2RW     -0.873500
     27 O5D         1.2020   -3.5330   11.3400 os        1 2RW     -0.585200
     28 C5D         1.8570   -4.5020   10.5900 c3        1 2RW      0.201400
     29 O4D         1.8500   -6.9200   10.6110 os        1 2RW     -0.438600
     30 C1D         2.9590   -7.8150   10.5860 c3        1 2RW      0.137400
     31 C2D         4.0780   -7.2620   11.4560 c3        1 2RW     -0.119400
     32 O3D         3.7040   -5.7890   13.3040 oh        1 2RW     -0.649800
     33 C3D         3.6070   -5.8690   11.8960 c3        1 2RW      0.147100
     34 C4D         2.1400   -5.7660   11.4250 c3        1 2RW      0.078100
     35 H1          1.5220   -0.5880   -0.2600 h5        1 2RW      0.029100
     36 H2         -2.5630   -0.3170    1.8870 hn        1 2RW      0.413300
     37 H3         -2.1660   -0.1120    3.5080 hn        1 2RW      0.413300
     38 H4          1.7770    0.0260    6.2990 h5        1 2RW      0.173800
     39 H5          4.3930   -0.2740    3.2740 h2        1 2RW      0.106700
     40 H6          3.9280    1.7320    5.3100 h1        1 2RW      0.088700
     41 H7          6.5090    0.8080    4.9580 ho        1 2RW      0.423000
     42 H8          3.9930    0.4240    7.2840 h1        1 2RW      0.122700
     43 H9          5.9690    0.4690    8.0450 ho        1 2RW      0.477000
     44 H10         5.7100   -1.8770    6.3590 h1        1 2RW      0.070700
     45 H11         2.6310   -1.7580    6.8760 h1        1 2RW      0.033700
     46 H12         3.7320   -3.2220    6.8660 h1        1 2RW      0.033700
     47 H15         1.1770   -4.7900    9.7380 h1        1 2RW      0.033700
     48 H16         2.8180   -4.0910   10.1760 h1        1 2RW      0.033700
     49 H19         5.0330   -7.1900   10.8850 hc        1 2RW      0.042700
     50 H20         4.2530   -7.9100   12.3500 hc        1 2RW      0.042700
     51 H21         3.6430   -4.8400   13.5190 ho        1 2RW      0.471000
     52 H22         4.2320   -5.0580   11.4310 h1        1 2RW      0.086700
     53 H23         1.4410   -5.8120   12.3030 h1        1 2RW      0.069700
     54 H17         2.5870   -8.8050   10.9590 h1        1 2RW      0.015700
     55 H18         3.2730   -7.9220    9.5150 h1        1 2RW      0.015700
@<TRIPOS>BOND
     1    1    2 ar  
     2    1    6 ar  
     3    2    3 ar  
     4    2   35 1   
     5    3    4 ar  
     6    4    5 ar  
     7    4   10 1   
     8    5    6 ar  
     9    5    8 1   
    10    6    7 1   
    11    7   36 1   
    12    7   37 1   
    13    8    9 2   
    14    9   10 1   
    15    9   38 1   
    16   10   11 1   
    17   11   12 1   
    18   11   16 1   
    19   11   39 1   
    20   12   13 1   
    21   12   14 1   
    22   12   40 1   
    23   13   41 1   
    24   14   15 1   
    25   14   17 1   
    26   14   42 1   
    27   15   43 1   
    28   16   17 1   
    29   17   18 1   
    30   17   44 1   
    31   18   19 1   
    32   18   45 1   
    33   18   46 1   
    34   19   20 1   
    35   20   21 1   
    36   20   22 1   
    37   20   23 1   
    38   23   24 1   
    39   24   25 1   
    40   24   26 1   
    41   24   27 1   
    42   27   28 1   
    43   28   34 1   
    44   28   47 1   
    45   28   48 1   
    46   29   30 1   
    47   29   34 1   
    48   30   31 1   
    49   30   54 1   
    50   30   55 1   
    51   31   33 1   
    52   31   49 1   
    53   31   50 1   
    54   32   33 1   
    55   32   51 1   
    56   33   34 1   
    57   33   52 1   
    58   34   53 1   
@<TRIPOS>SUBSTRUCTURE
     1 2RW         1 TEMP              0 ****  ****    0 ROOT
