@<TRIPOS>MOLECULE
2RY
   50    54     1     0     0
SMALL
bcc


@<TRIPOS>ATOM
      1 F1          0.7460    0.2540    1.8790 f         1 2RY     -0.239633
      2 C22         1.8770    0.2850    1.0990 c3        1 2RY      0.685200
      3 F2          2.8140    0.8720    1.9180 f         1 2RY     -0.239633
      4 F3          2.2650   -1.0330    1.0440 f         1 2RY     -0.239633
      5 C21         1.7050    0.9600   -0.2600 ca        1 2RY     -0.160300
      6 C20         0.4350    1.4470   -0.5880 ca        1 2RY     -0.091000
      7 C19         0.2170    2.0780   -1.8090 ca        1 2RY     -0.131000
      8 C18         1.2720    2.2240   -2.7100 ca        1 2RY     -0.100000
      9 C17         2.5370    1.7430   -2.3850 ca        1 2RY     -0.106000
     10 C16         2.7720    1.1010   -1.1610 ca        1 2RY     -0.023300
     11 C9          4.1530    0.6410   -0.8380 c3        1 2RY     -0.116100
     12 C8          4.7830   -0.2210   -1.9220 c         1 2RY      0.666100
     13 O1          4.2820   -0.3360   -3.0580 o         1 2RY     -0.603100
     14 N4          5.9860   -0.8580   -1.6380 n         1 2RY     -0.472800
     15 C15         6.5620   -0.8620   -0.3160 c3        1 2RY      0.059000
     16 C7          8.0990   -1.0360   -0.3170 c3        1 2RY      0.163800
     17 C6          6.4990   -1.8350   -2.5770 c3        1 2RY      0.059000
     18 C5          8.0340   -1.9750   -2.5270 c3        1 2RY      0.163800
     19 N3          8.6090   -2.0790   -1.1950 nh        1 2RY     -0.707300
     20 C1          8.6680   -3.3750   -0.6000 ca        1 2RY      0.621200
     21 C3          9.5870   -3.5890    0.4880 ca        1 2RY     -0.107600
     22 N1          7.9360   -4.4210   -1.0750 nb        1 2RY     -0.699000
     23 C2          8.1070   -5.6390   -0.4900 ca        1 2RY      0.607900
     24 N2          8.9160   -5.9480    0.5520 nb        1 2RY     -0.636000
     25 C4          9.6370   -4.9140    1.0240 ca        1 2RY     -0.099700
     26 S1         10.6940   -4.9730    2.4090 sx        1 2RY      0.567500
     27 C11        11.2360   -3.4780    2.2160 cc        1 2RY     -0.349500
     28 C10        10.5130   -2.7400    1.1570 cc        1 2RY     -0.143000
     29 C12        12.1880   -2.5690    2.7520 cd        1 2RY     -0.017000
     30 C13        12.0460   -1.3360    2.1020 cd        1 2RY     -0.231000
     31 C14        11.0200   -1.4440    1.1070 cc        1 2RY     -0.057000
     32 H1         -0.3970    1.3290    0.1250 ha        1 2RY      0.152000
     33 H2         -0.7850    2.4560   -2.0600 ha        1 2RY      0.142000
     34 H3          1.1060    2.7170   -3.6800 ha        1 2RY      0.142000
     35 H4          3.3640    1.8350   -3.1090 ha        1 2RY      0.161000
     36 H5          4.1550    0.0660    0.1280 hc        1 2RY      0.082700
     37 H6          4.8030    1.5510   -0.6970 hc        1 2RY      0.082700
     38 H7          6.3500    0.1170    0.1990 h1        1 2RY      0.060950
     39 H8          6.1000   -1.6890    0.2980 h1        1 2RY      0.060950
     40 H9          8.5760   -0.0760   -0.6660 h1        1 2RY      0.074450
     41 H10         8.4270   -1.2290    0.7430 h1        1 2RY      0.074450
     42 H11         6.2080   -1.5230   -3.6200 h1        1 2RY      0.060950
     43 H12         6.0250   -2.8370   -2.3680 h1        1 2RY      0.060950
     44 H13         8.5040   -1.0590   -2.9870 h1        1 2RY      0.074450
     45 H14         8.3220   -2.8650   -3.1500 h1        1 2RY      0.074450
     46 H15         7.5020   -6.4660   -0.9140 h5        1 2RY      0.061100
     47 H16        12.8970   -2.8000    3.5460 ha        1 2RY      0.126000
     48 H17        12.6230   -0.4370    2.3030 ha        1 2RY      0.137000
     49 H18        10.7090   -0.6490    0.4310 ha        1 2RY      0.138000
     50 H19        11.6450   -5.7360    1.9620 hs        1 2RY      0.211000
@<TRIPOS>BOND
     1    1    2 1   
     2    2    3 1   
     3    2    4 1   
     4    2    5 1   
     5    5    6 ar  
     6    5   10 ar  
     7    6    7 ar  
     8    6   32 1   
     9    7    8 ar  
    10    7   33 1   
    11    8    9 ar  
    12    8   34 1   
    13    9   10 ar  
    14    9   35 1   
    15   10   11 1   
    16   11   12 1   
    17   11   36 1   
    18   11   37 1   
    19   12   13 2   
    20   12   14 1   
    21   14   15 1   
    22   14   17 1   
    23   15   16 1   
    24   15   38 1   
    25   15   39 1   
    26   16   19 1   
    27   16   40 1   
    28   16   41 1   
    29   17   18 1   
    30   17   42 1   
    31   17   43 1   
    32   18   19 1   
    33   18   44 1   
    34   18   45 1   
    35   19   20 1   
    36   20   21 ar  
    37   20   22 ar  
    38   21   25 ar  
    39   21   28 2   
    40   22   23 ar  
    41   23   24 ar  
    42   23   46 1   
    43   24   25 ar  
    44   25   26 2   
    45   26   27 1   
    46   26   50 1   
    47   27   28 1   
    48   27   29 2   
    49   28   31 1   
    50   29   30 1   
    51   29   47 1   
    52   30   31 2   
    53   30   48 1   
    54   31   49 1   
@<TRIPOS>SUBSTRUCTURE
     1 2RY         1 TEMP              0 ****  ****    0 ROOT
