@<TRIPOS>MOLECULE
2RY
   50    54     1     0     0
SMALL
bcc


@<TRIPOS>ATOM
      1 F1          0.7870    0.2870    1.9190 f         1 2RY     -0.239633
      2 C22         1.9110    0.3010    1.1280 c3        1 2RY      0.685200
      3 F2          2.8620    0.8830    1.9330 f         1 2RY     -0.239633
      4 F3          2.2850   -1.0210    1.0780 f         1 2RY     -0.239633
      5 C21         1.7330    0.9700   -0.2330 ca        1 2RY     -0.160300
      6 C20         0.4650    1.4660   -0.5520 ca        1 2RY     -0.091000
      7 C19         0.2410    2.0920   -1.7750 ca        1 2RY     -0.131000
      8 C18         1.2880    2.2230   -2.6870 ca        1 2RY     -0.100000
      9 C17         2.5520    1.7320   -2.3710 ca        1 2RY     -0.106000
     10 C16         2.7930    1.0950   -1.1450 ca        1 2RY     -0.023300
     11 C9          4.1720    0.6250   -0.8320 c3        1 2RY     -0.116100
     12 C8          4.7860   -0.2460   -1.9180 c         1 2RY      0.666100
     13 O1          4.2730   -0.3650   -3.0480 o         1 2RY     -0.603100
     14 N4          5.9890   -0.8870   -1.6440 n         1 2RY     -0.472800
     15 C15         6.5800   -0.8890   -0.3290 c3        1 2RY      0.059500
     16 C7          8.1170   -1.0620   -0.3470 c3        1 2RY      0.163800
     17 C6          6.4890   -1.8710   -2.5840 c3        1 2RY      0.059500
     18 C5          8.0230   -2.0150   -2.5520 c3        1 2RY      0.163800
     19 N3          8.6170   -2.1090   -1.2270 nh        1 2RY     -0.707300
     20 C1          8.6830   -3.4020   -0.6250 ca        1 2RY      0.619200
     21 C3          9.6420   -3.6200    0.4270 ca        1 2RY     -0.104600
     22 N1          7.9170   -4.4400   -1.0610 nb        1 2RY     -0.698000
     23 C2          8.0970   -5.6570   -0.4760 ca        1 2RY      0.606900
     24 N2          8.9520   -5.9730    0.5260 nb        1 2RY     -0.635000
     25 C4          9.7100   -4.9460    0.9560 ca        1 2RY     -0.100700
     26 S1         10.9810   -5.0670    2.1450 sx        1 2RY      0.570500
     27 C11        11.3020   -3.4990    2.1430 cc        1 2RY     -0.349500
     28 C10        10.5710   -2.7670    1.0850 cc        1 2RY     -0.142000
     29 C12        12.1550   -2.5480    2.7660 cd        1 2RY     -0.018000
     30 C13        12.0090   -1.3190    2.1090 cd        1 2RY     -0.231000
     31 C14        11.0310   -1.4520    1.0710 cc        1 2RY     -0.059000
     32 H1         -0.3620    1.3610    0.1690 ha        1 2RY      0.152000
     33 H2         -0.7600    2.4770   -2.0190 ha        1 2RY      0.142000
     34 H3          1.1170    2.7110   -3.6580 ha        1 2RY      0.142000
     35 H4          3.3730    1.8120   -3.1030 ha        1 2RY      0.161000
     36 H5          4.8300    1.5290   -0.6990 hc        1 2RY      0.082700
     37 H6          4.1770    0.0510    0.1350 hc        1 2RY      0.082700
     38 H7          6.3730    0.0910    0.1870 h1        1 2RY      0.060950
     39 H8          6.1250   -1.7150    0.2920 h1        1 2RY      0.060950
     40 H9          8.4570   -1.2520    0.7100 h1        1 2RY      0.074200
     41 H10         8.5890   -0.1040   -0.7050 h1        1 2RY      0.074200
     42 H11         6.0150   -2.8700   -2.3630 h1        1 2RY      0.060950
     43 H12         6.1860   -1.5640   -3.6250 h1        1 2RY      0.060950
     44 H13         8.3020   -2.9110   -3.1710 h1        1 2RY      0.074200
     45 H14         8.4900   -1.1030   -3.0260 h1        1 2RY      0.074200
     46 H15         7.4560   -6.4770   -0.8610 h5        1 2RY      0.061100
     47 H16        12.8180   -2.7550    3.6050 ha        1 2RY      0.127000
     48 H17        12.5470   -0.4030    2.3410 ha        1 2RY      0.137000
     49 H18        10.7230   -0.6630    0.3870 ha        1 2RY      0.138000
     50 H19        10.2830   -5.2710    3.2210 hs        1 2RY      0.208000
@<TRIPOS>BOND
     1    1    2 1   
     2    2    3 1   
     3    2    4 1   
     4    2    5 1   
     5    5    6 ar  
     6    5   10 ar  
     7    6    7 ar  
     8    6   32 1   
     9    7    8 ar  
    10    7   33 1   
    11    8    9 ar  
    12    8   34 1   
    13    9   10 ar  
    14    9   35 1   
    15   10   11 1   
    16   11   12 1   
    17   11   36 1   
    18   11   37 1   
    19   12   13 2   
    20   12   14 1   
    21   14   15 1   
    22   14   17 1   
    23   15   16 1   
    24   15   38 1   
    25   15   39 1   
    26   16   19 1   
    27   16   40 1   
    28   16   41 1   
    29   17   18 1   
    30   17   42 1   
    31   17   43 1   
    32   18   19 1   
    33   18   44 1   
    34   18   45 1   
    35   19   20 1   
    36   20   21 ar  
    37   20   22 ar  
    38   21   25 ar  
    39   21   28 2   
    40   22   23 ar  
    41   23   24 ar  
    42   23   46 1   
    43   24   25 ar  
    44   25   26 2   
    45   26   27 1   
    46   26   50 1   
    47   27   28 1   
    48   27   29 2   
    49   28   31 1   
    50   29   30 1   
    51   29   47 1   
    52   30   31 2   
    53   30   48 1   
    54   31   49 1   
@<TRIPOS>SUBSTRUCTURE
     1 2RY         1 TEMP              0 ****  ****    0 ROOT
