@<TRIPOS>MOLECULE
2RY
   50    54     1     0     0
SMALL
bcc


@<TRIPOS>ATOM
      1 F1          0.7760    0.2790    1.8950 f         1 2RY     -0.239633
      2 C22         1.9040    0.2960    1.1100 c3        1 2RY      0.685200
      3 F2          2.8510    0.8750    1.9240 f         1 2RY     -0.239633
      4 F3          2.2790   -1.0260    1.0560 f         1 2RY     -0.239633
      5 C21         1.7340    0.9710   -0.2480 ca        1 2RY     -0.160300
      6 C20         0.4670    1.4690   -0.5720 ca        1 2RY     -0.091000
      7 C19         0.2490    2.1000   -1.7940 ca        1 2RY     -0.131000
      8 C18         1.3020    2.2350   -2.6990 ca        1 2RY     -0.100000
      9 C17         2.5630    1.7420   -2.3790 ca        1 2RY     -0.106000
     10 C16         2.7980    1.1000   -1.1540 ca        1 2RY     -0.023300
     11 C9          4.1750    0.6280   -0.8370 c3        1 2RY     -0.116100
     12 C8          4.7940   -0.2390   -1.9230 c         1 2RY      0.666100
     13 O1          4.2870   -0.3530   -3.0560 o         1 2RY     -0.603100
     14 N4          5.9960   -0.8820   -1.6440 n         1 2RY     -0.472800
     15 C15         6.5800   -0.8890   -0.3270 c3        1 2RY      0.059500
     16 C7          8.1170   -1.0630   -0.3380 c3        1 2RY      0.163800
     17 C6          6.4990   -1.8630   -2.5850 c3        1 2RY      0.059500
     18 C5          8.0330   -2.0080   -2.5460 c3        1 2RY      0.163800
     19 N3          8.6210   -2.1070   -1.2190 nh        1 2RY     -0.707300
     20 C1          8.6820   -3.4020   -0.6210 ca        1 2RY      0.619200
     21 C3          9.6360   -3.6250    0.4350 ca        1 2RY     -0.104600
     22 N1          7.9180   -4.4380   -1.0640 nb        1 2RY     -0.698000
     23 C2          8.0940   -5.6570   -0.4820 ca        1 2RY      0.606900
     24 N2          8.9440   -5.9770    0.5230 nb        1 2RY     -0.635000
     25 C4          9.7010   -4.9530    0.9590 ca        1 2RY     -0.100700
     26 S1         10.9660   -5.0790    2.1540 sx        1 2RY      0.570500
     27 C11        11.2880   -3.5110    2.1590 cc        1 2RY     -0.349500
     28 C10        10.5630   -2.7750    1.1000 cc        1 2RY     -0.142000
     29 C12        12.1390   -2.5630    2.7890 cd        1 2RY     -0.018000
     30 C13        11.9980   -1.3310    2.1350 cd        1 2RY     -0.231000
     31 C14        11.0250   -1.4610    1.0930 cc        1 2RY     -0.059000
     32 H1         -0.3640    1.3600    0.1440 ha        1 2RY      0.152000
     33 H2         -0.7500    2.4870   -2.0410 ha        1 2RY      0.142000
     34 H3          1.1360    2.7280   -3.6690 ha        1 2RY      0.142000
     35 H4          3.3880    1.8260   -3.1060 ha        1 2RY      0.161000
     36 H5          4.1760    0.0520    0.1290 hc        1 2RY      0.082700
     37 H6          4.8340    1.5320   -0.6970 hc        1 2RY      0.082700
     38 H7          6.3720    0.0890    0.1920 h1        1 2RY      0.060950
     39 H8          6.1210   -1.7170    0.2890 h1        1 2RY      0.060950
     40 H9          8.4510   -1.2570    0.7200 h1        1 2RY      0.074200
     41 H10         8.5920   -0.1030   -0.6910 h1        1 2RY      0.074200
     42 H11         6.0230   -2.8620   -2.3700 h1        1 2RY      0.060950
     43 H12         6.2020   -1.5520   -3.6270 h1        1 2RY      0.060950
     44 H13         8.3140   -2.9020   -3.1670 h1        1 2RY      0.074200
     45 H14         8.5030   -1.0950   -3.0150 h1        1 2RY      0.074200
     46 H15         7.4540   -6.4750   -0.8740 h5        1 2RY      0.061100
     47 H16        12.7980   -2.7730    3.6300 ha        1 2RY      0.127000
     48 H17        12.5360   -0.4170    2.3730 ha        1 2RY      0.137000
     49 H18        10.7200   -0.6690    0.4100 ha        1 2RY      0.138000
     50 H19        10.2630   -5.2860    3.2260 hs        1 2RY      0.208000
@<TRIPOS>BOND
     1    1    2 1   
     2    2    3 1   
     3    2    4 1   
     4    2    5 1   
     5    5    6 ar  
     6    5   10 ar  
     7    6    7 ar  
     8    6   32 1   
     9    7    8 ar  
    10    7   33 1   
    11    8    9 ar  
    12    8   34 1   
    13    9   10 ar  
    14    9   35 1   
    15   10   11 1   
    16   11   12 1   
    17   11   36 1   
    18   11   37 1   
    19   12   13 2   
    20   12   14 1   
    21   14   15 1   
    22   14   17 1   
    23   15   16 1   
    24   15   38 1   
    25   15   39 1   
    26   16   19 1   
    27   16   40 1   
    28   16   41 1   
    29   17   18 1   
    30   17   42 1   
    31   17   43 1   
    32   18   19 1   
    33   18   44 1   
    34   18   45 1   
    35   19   20 1   
    36   20   21 ar  
    37   20   22 ar  
    38   21   25 ar  
    39   21   28 2   
    40   22   23 ar  
    41   23   24 ar  
    42   23   46 1   
    43   24   25 ar  
    44   25   26 2   
    45   26   27 1   
    46   26   50 1   
    47   27   28 1   
    48   27   29 2   
    49   28   31 1   
    50   29   30 1   
    51   29   47 1   
    52   30   31 2   
    53   30   48 1   
    54   31   49 1   
@<TRIPOS>SUBSTRUCTURE
     1 2RY         1 TEMP              0 ****  ****    0 ROOT
