@<TRIPOS>MOLECULE
2RZ
   76    78     1     0     0
SMALL
bcc


@<TRIPOS>ATOM
      1 C1          0.7900    2.7420   -0.2330 ca        1 2RZ     -0.065000
      2 C2          1.8120    3.3680    0.4880 ca        1 2RZ     -0.098500
      3 C3          2.4410    2.6970    1.5350 ca        1 2RZ     -0.150000
      4 C7          2.3480    0.9480    4.3370 c3        1 2RZ      0.050500
      5 C9          2.9230   -0.0610    5.3540 c         1 2RZ      0.505100
      6 C12         1.0190    0.7710    1.1510 ca        1 2RZ     -0.150000
      7 C13         5.3260    0.3480    6.0750 c3        1 2RZ      0.236100
      8 C14         6.6180   -0.3260    6.0540 ca        1 2RZ     -0.262300
      9 C15         7.5770    0.0060    5.0640 ca        1 2RZ     -0.166000
     10 C16         8.8230   -0.5900    5.0800 ca        1 2RZ      0.117100
     11 C21        -2.9670    4.3660    9.4760 ca        1 2RZ     -0.180000
     12 C22        -2.6510    5.6120    8.9280 ca        1 2RZ      0.145100
     13 C24        -2.6510    4.6080    6.7040 ca        1 2RZ     -0.216000
     14 C30        -2.8420    6.7090   11.0430 c3        1 2RZ      0.101700
     15 C31        -3.1780    2.1940    6.3950 c3        1 2RZ     -0.065100
     16 C32        -1.9510    1.6080    5.7550 c         1 2RZ      0.603100
     17 C34         8.1810   -1.8810    7.0700 ca        1 2RZ     -0.219000
     18 C35         9.1450   -1.5600    6.1010 ca        1 2RZ      0.240100
     19 C4          2.0450    1.3940    1.8760 ca        1 2RZ     -0.224300
     20 C5          0.3930    1.4460    0.1020 ca        1 2RZ     -0.098500
     21 C6          2.8040    0.6260    2.8970 c3        1 2RZ     -0.053100
     22 N8          0.8370    0.9850    4.4340 n4        1 2RZ     -0.790000
     23 C17         6.9350   -1.2720    7.0430 ca        1 2RZ     -0.031000
     24 C18         0.2710    2.3720    4.7160 c2        1 2RZ      0.623100
     25 N19         0.4580    3.4120    4.0050 n2        1 2RZ     -0.610100
     26 N20        -0.6390    2.4530    5.8960 n4        1 2RZ     -0.693800
     27 C23        -2.4770    5.7330    7.5120 ca        1 2RZ      0.146100
     28 C25        -2.9370    3.3530    7.2770 ca        1 2RZ     -0.236300
     29 C26        -3.1010    3.2430    8.6570 ca        1 2RZ     -0.064000
     30 C29        -2.4300    8.1330    7.4160 c3        1 2RZ      0.118700
     31 O33        -1.7880    0.5750    5.1320 o         1 2RZ     -0.461100
     32 O36        10.3860   -2.0810    6.0240 os        1 2RZ     -0.250900
     33 O37         9.8310   -0.3700    4.1800 os        1 2RZ     -0.273900
     34 C38         9.6780    0.7400    3.2970 c3        1 2RZ      0.103700
     35 C39        10.7840   -3.0240    7.0320 c3        1 2RZ      0.095700
     36 H1          0.3140    3.2650   -1.0840 ha        1 2RZ      0.193000
     37 H2          2.1440    4.3820    0.2040 ha        1 2RZ      0.186000
     38 H3          3.2940    3.1710    2.0480 ha        1 2RZ      0.145000
     39 H4          2.7520    1.9680    4.6280 hx        1 2RZ      0.143700
     40 H5          0.7440   -0.2770    1.3550 ha        1 2RZ      0.145000
     41 H6          4.8760    0.4000    7.1060 hx        1 2RZ      0.097200
     42 H7          5.3460    1.3610    5.5890 hx        1 2RZ      0.097200
     43 H8          7.3410    0.7670    4.3060 ha        1 2RZ      0.138000
     44 H9         -3.1280    4.2610   10.5630 ha        1 2RZ      0.181000
     45 H10        -2.6540    4.7520    5.6110 ha        1 2RZ      0.150000
     46 H11        -2.1520    6.0280   11.5960 h1        1 2RZ      0.074033
     47 H12        -3.9060    6.3950   11.1620 h1        1 2RZ      0.074033
     48 H13        -2.6990    7.7730   11.3670 h1        1 2RZ      0.074033
     49 H14        -3.8620    2.4770    5.5350 hc        1 2RZ      0.157700
     50 H15        -3.6750    1.3420    6.9530 hc        1 2RZ      0.157700
     51 H16         8.4200   -2.6100    7.8640 ha        1 2RZ      0.183000
     52 H17        -0.3950    0.9400   -0.4850 ha        1 2RZ      0.186000
     53 H18         3.8940    0.9010    2.8180 hc        1 2RZ      0.104200
     54 H19         2.7000   -0.4770    2.7010 hc        1 2RZ      0.104200
     55 H20         0.5080    0.3000    5.1380 hn        1 2RZ      0.499300
     56 H21         4.6270   -0.5060    4.2510 hn        1 2RZ      0.477300
     57 H22         6.2000   -1.5230    7.8270 ha        1 2RZ      0.144000
     58 H23         1.0220    3.4370    3.1690 hn        1 2RZ      0.530400
     59 H24        -0.9320    3.4580    6.0370 hn        1 2RZ      0.509300
     60 H25        -3.3640    2.2760    9.1180 ha        1 2RZ      0.156000
     61 H26        -2.2810    8.8360    6.5560 h1        1 2RZ      0.073033
     62 H27        -1.7340    8.3710    8.2570 h1        1 2RZ      0.073033
     63 H28        -3.4910    8.1360    7.7610 h1        1 2RZ      0.073033
     64 H29        10.6590    0.7600    2.7520 h1        1 2RZ      0.061367
     65 H30         8.8350    0.5570    2.5870 h1        1 2RZ      0.061367
     66 H31         9.5220    1.6850    3.8700 h1        1 2RZ      0.061367
     67 H32        10.1350   -3.9310    6.9870 h1        1 2RZ      0.079700
     68 H33        10.7560   -2.5470    8.0400 h1        1 2RZ      0.079700
     69 H34        11.8380   -3.2670    6.7290 h1        1 2RZ      0.079700
     70 O10         2.2490   -0.4580    6.3050 o         1 2RZ     -0.433100
     71 O28        -2.0770    6.8620    6.8510 os        1 2RZ     -0.333900
     72 H82         0.4410    0.6860    3.5140 hn        1 2RZ      0.499300
     73 H112        4.3930   -1.4750    5.5870 hn        1 2RZ      0.477300
     74 H202       -0.1430    2.1630    6.7480 hn        1 2RZ      0.509300
     75 N11         4.3150   -0.5040    5.2290 n4        1 2RZ     -0.690800
     76 O27        -2.4820    6.7530    9.6550 os        1 2RZ     -0.308900
@<TRIPOS>BOND
     1    1    2 ar  
     2    1   20 ar  
     3    1   36 1   
     4    2    3 ar  
     5    2   37 1   
     6    3   19 ar  
     7    3   38 1   
     8    4    5 1   
     9    4   21 1   
    10    4   22 1   
    11    4   39 1   
    12    5   70 2   
    13    5   75 1   
    14    6   19 ar  
    15    6   20 ar  
    16    6   40 1   
    17    7    8 1   
    18    7   41 1   
    19    7   42 1   
    20    7   75 1   
    21    8    9 ar  
    22    8   23 ar  
    23    9   10 ar  
    24    9   43 1   
    25   10   18 ar  
    26   10   33 1   
    27   11   12 ar  
    28   11   29 ar  
    29   11   44 1   
    30   12   27 ar  
    31   12   76 1   
    32   13   27 ar  
    33   13   28 ar  
    34   13   45 1   
    35   14   46 1   
    36   14   47 1   
    37   14   48 1   
    38   14   76 1   
    39   15   16 1   
    40   15   28 1   
    41   15   49 1   
    42   15   50 1   
    43   16   26 1   
    44   16   31 2   
    45   17   18 ar  
    46   17   23 ar  
    47   17   51 1   
    48   18   32 1   
    49   19   21 1   
    50   20   52 1   
    51   21   53 1   
    52   21   54 1   
    53   22   24 1   
    54   22   55 1   
    55   22   72 1   
    56   23   57 1   
    57   24   25 2   
    58   24   26 1   
    59   25   58 1   
    60   26   59 1   
    61   26   74 1   
    62   27   71 1   
    63   28   29 ar  
    64   29   60 1   
    65   30   61 1   
    66   30   62 1   
    67   30   63 1   
    68   30   71 1   
    69   32   35 1   
    70   33   34 1   
    71   34   64 1   
    72   34   65 1   
    73   34   66 1   
    74   35   67 1   
    75   35   68 1   
    76   35   69 1   
    77   56   75 1   
    78   73   75 1   
@<TRIPOS>SUBSTRUCTURE
     1 2RZ         1 TEMP              0 ****  ****    0 ROOT
