@<TRIPOS>MOLECULE
2S0
   72    74     1     0     0
SMALL
bcc


@<TRIPOS>ATOM
      1 C1         -0.3590    0.1340    0.3330 c3        1 2S0     -0.046000
      2 C2          0.3090    0.3760   -0.9690 c2        1 2S0     -0.357000
      3 C3          1.4720   -0.1410   -1.2890 c1        1 2S0      0.244000
      4 C4          1.5910    1.5080    1.9900 c2        1 2S0     -0.224000
      5 C5          0.2970    1.8580    2.0440 c2        1 2S0     -0.062000
      6 C6         -0.1620    2.7740    3.1320 c3        1 2S0     -0.127000
      7 C7         -1.6290    3.1330    3.0640 c3        1 2S0     -0.149000
      8 C8         -2.1190    3.3310    1.6370 c3        1 2S0     -0.073000
      9 C9         -1.8170    2.1120    0.8210 c2        1 2S0     -0.082000
     10 C10        -0.6820    1.4080    1.0500 c2        1 2S0     -0.082000
     11 C11        -2.8170    1.7500   -0.2330 c3        1 2S0     -0.033000
     12 C12        -3.1620    2.9210   -1.1550 c3        1 2S0     -0.115000
     13 C13        -4.1110    4.0240   -0.7620 cx        1 2S0     -0.022000
     14 C14        -1.5120    4.5680    0.9800 c3        1 2S0     -0.145000
     15 C15        -2.5290    5.6580    0.7460 c3        1 2S0     -0.131000
     16 C16        -3.7750    5.2830    0.0120 cx        1 2S0     -0.131000
     17 C17        -3.8980    5.3700   -1.4960 cx        1 2S0     -0.059000
     18 C18        -5.5360    3.5720   -0.6030 c3        1 2S0     -0.222000
     19 C20        -5.0370    6.1240   -2.1130 c2        1 2S0      0.265000
     20 C21        -4.9840    6.3070   -3.5950 c3        1 2S0     -0.263000
     21 O3          2.5230   -0.6110   -1.6030 o         1 2S0     -0.165000
     22 O20        -5.9680    6.5610   -1.4280 o         1 2S0     -0.292000
     23 C32        -4.0460    1.0250    0.3540 c3        1 2S0     -0.017000
     24 C33        -3.6170   -0.0530    1.3070 c2        1 2S0     -0.492000
     25 C34        -4.0930   -1.2690    1.4040 c1        1 2S0      0.103000
     26 C35        -6.2960   -1.1910    0.2780 c2        1 2S0      0.105000
     27 C36        -5.6750   -0.5620   -0.8000 c2        1 2S0     -0.330000
     28 C37        -4.8920    0.5650   -0.7450 c1        1 2S0     -0.152000
     29 N38        -7.0770   -2.2970    0.2030 n3        1 2S0     -0.245000
     30 C39        -7.1540   -3.0720   -1.0070 c3        1 2S0     -0.086000
     31 C40        -7.8820   -2.7240    1.3160 c3        1 2S0     -0.086000
     32 C31        -0.7690    6.3610   -3.2130 c3        1 2S0     -0.220000
     33 O30        -2.4720    7.6010   -1.9580 o         1 2S0     -0.340000
     34 O17        -2.7240    5.3860   -2.2850 os        1 2S0     -0.241000
     35 H1         -2.3280    1.0000   -0.9290 hc        1 2S0      0.100000
     36 H2         -0.2070    1.0310   -1.6880 ha        1 2S0      0.182000
     37 H3          2.0040    0.8670    1.2010 ha        1 2S0      0.113500
     38 H4          2.3170    1.8610    2.7340 ha        1 2S0      0.113500
     39 H5          0.4530    3.7150    3.0850 hc        1 2S0      0.088000
     40 H6          0.0530    2.2960    4.1270 hc        1 2S0      0.088000
     41 H7         -2.2350    2.3140    3.5360 hc        1 2S0      0.081000
     42 H8         -1.8120    4.0690    3.6540 hc        1 2S0      0.081000
     43 H10        -3.2410    3.4560    1.6790 hc        1 2S0      0.103000
     44 H11        -3.6200    2.4570   -2.0770 hc        1 2S0      0.102500
     45 H12        -2.1810    3.3780   -1.4610 hc        1 2S0      0.102500
     46 H13        -1.0350    4.2890    0.0030 hc        1 2S0      0.085500
     47 H14        -0.6940    4.9800    1.6290 hc        1 2S0      0.085500
     48 H15        -2.8330    6.0740    1.7470 hc        1 2S0      0.090500
     49 H16        -2.0340    6.4980    0.1820 hc        1 2S0      0.090500
     50 H17        -4.6650    5.7140    0.5390 hc        1 2S0      0.139000
     51 H18        -6.2610    4.3490   -0.9480 hc        1 2S0      0.096333
     52 H19        -5.7220    2.6320   -1.1830 hc        1 2S0      0.096333
     53 H20        -5.7490    3.3830    0.4790 hc        1 2S0      0.096333
     54 H21        -4.7060    5.3460   -4.0900 hc        1 2S0      0.107000
     55 H22        -4.2050    7.0740   -3.8330 hc        1 2S0      0.107000
     56 H23        -5.9710    6.6580   -3.9830 hc        1 2S0      0.107000
     57 H25        -4.6470    1.7830    0.9470 hc        1 2S0      0.124000
     58 H26        -2.7960    0.2500    1.9930 ha        1 2S0      0.202000
     59 H27        -6.2920   -0.6970    1.2780 h4        1 2S0      0.150000
     60 H28        -5.8690   -0.9480   -1.8200 ha        1 2S0      0.150000
     61 H29        -7.7260   -2.5080   -1.7940 h1        1 2S0      0.091333
     62 H30        -6.1200   -3.2810   -1.3950 h1        1 2S0      0.091333
     63 H31        -7.6730   -4.0460   -0.8050 h1        1 2S0      0.091333
     64 H32        -8.9690   -2.7090    1.0290 h1        1 2S0      0.091333
     65 H33        -7.7300   -2.0510    2.2000 h1        1 2S0      0.091333
     66 H34        -7.5990   -3.7710    1.6070 h1        1 2S0      0.091333
     67 H35        -0.7210    5.3320   -3.6440 hc        1 2S0      0.116667
     68 H36         0.1030    6.5170   -2.5300 hc        1 2S0      0.116667
     69 H37        -0.7290    7.1160   -4.0350 hc        1 2S0      0.116667
     70 H38        -1.3090   -0.4450    0.1480 hc        1 2S0      0.095500
     71 H39         0.2800   -0.5130    0.9940 hc        1 2S0      0.095500
     72 C30        -2.0250    6.5590   -2.4340 c2        1 2S0      0.301000
@<TRIPOS>BOND
     1    1    2 1   
     2    1   10 1   
     3    1   70 1   
     4    1   71 1   
     5    2    3 1   
     6    2   36 1   
     7    3   21 1   
     8    4    5 1   
     9    4   37 1   
    10    4   38 1   
    11    5    6 1   
    12    5   10 1   
    13    6    7 1   
    14    6   39 1   
    15    6   40 1   
    16    7    8 1   
    17    7   41 1   
    18    7   42 1   
    19    8    9 1   
    20    8   14 1   
    21    8   43 1   
    22    9   10 1   
    23    9   11 1   
    24   11   12 1   
    25   11   23 1   
    26   11   35 1   
    27   12   13 1   
    28   12   44 1   
    29   12   45 1   
    30   13   16 1   
    31   13   17 1   
    32   13   18 1   
    33   14   15 1   
    34   14   46 1   
    35   14   47 1   
    36   15   16 1   
    37   15   48 1   
    38   15   49 1   
    39   16   17 1   
    40   16   50 1   
    41   17   19 1   
    42   17   34 1   
    43   18   51 1   
    44   18   52 1   
    45   18   53 1   
    46   19   20 1   
    47   19   22 1   
    48   20   54 1   
    49   20   55 1   
    50   20   56 1   
    51   23   24 1   
    52   23   28 1   
    53   23   57 1   
    54   24   25 1   
    55   24   58 1   
    56   26   27 1   
    57   26   29 1   
    58   26   59 1   
    59   27   28 1   
    60   27   60 1   
    61   29   30 1   
    62   29   31 1   
    63   30   61 1   
    64   30   62 1   
    65   30   63 1   
    66   31   64 1   
    67   31   65 1   
    68   31   66 1   
    69   32   67 1   
    70   32   68 1   
    71   32   69 1   
    72   32   72 1   
    73   33   72 1   
    74   34   72 1   
@<TRIPOS>SUBSTRUCTURE
     1 2S0         1 TEMP              0 ****  ****    0 ROOT
