@<TRIPOS>MOLECULE
2S0
   72    74     1     0     0
SMALL
bcc


@<TRIPOS>ATOM
      1 C1         -0.4550   -0.0380    0.4510 c3        1 2S0     -0.047000
      2 C2          0.6430    0.2810   -0.4930 c2        1 2S0     -0.367000
      3 C3          1.5790   -0.5790   -0.8250 c1        1 2S0      0.248000
      4 C4          0.8740    0.9700    2.8340 c2        1 2S0     -0.207000
      5 C5         -0.3240    1.4480    2.4710 c2        1 2S0     -0.073000
      6 C6         -1.1140    2.3250    3.3840 c3        1 2S0     -0.128000
      7 C7         -1.5780    3.5510    2.6300 c3        1 2S0     -0.151000
      8 C8         -2.4380    3.1710    1.4330 c3        1 2S0     -0.056000
      9 C9         -1.9150    1.9840    0.6670 c2        1 2S0     -0.083000
     10 C10        -0.9430    1.1840    1.1690 c2        1 2S0     -0.069000
     11 C11        -2.5220    1.7040   -0.6830 c3        1 2S0     -0.028000
     12 C12        -2.8750    2.9520   -1.5040 c3        1 2S0     -0.136000
     13 C13        -3.5040    4.0600   -0.6810 c3        1 2S0     -0.030000
     14 C14        -2.5500    4.3540    0.4930 c3        1 2S0     -0.102000
     15 C15        -3.0320    5.6850    1.0540 c3        1 2S0     -0.152000
     16 C16        -3.5280    6.4630   -0.1660 c3        1 2S0     -0.173000
     17 C17        -3.5880    5.4750   -1.3570 c3        1 2S0      0.050000
     18 C18        -4.9080    3.6760   -0.2450 c3        1 2S0     -0.216000
     19 C20        -4.8500    5.6390   -2.1960 c2        1 2S0      0.236000
     20 C21        -4.7580    5.2250   -3.6290 c3        1 2S0     -0.269000
     21 O3          2.4370   -1.3430   -1.1430 o         1 2S0     -0.157000
     22 O20        -5.8930    6.0780   -1.7040 o         1 2S0     -0.282000
     23 C32        -3.6750    0.7330   -0.6170 c2        1 2S0     -0.056000
     24 C33        -4.0180    0.1460    0.7160 c3        1 2S0     -0.012000
     25 C34        -5.1030   -0.7900    0.6960 c1        1 2S0     -0.113000
     26 C35        -6.0090   -1.5740    0.7050 c1        1 2S0     -0.283000
     27 C36        -4.9320    0.0360   -2.7930 c2        1 2S0     -0.169000
     28 C37        -4.3080    0.3810   -1.7100 c1        1 2S0     -0.158000
     29 N38        -7.0270   -2.5790    0.8100 nx        1 2S0      0.295000
     30 C39        -8.3500   -1.8940    0.9280 c3        1 2S0     -0.143000
     31 C40        -6.8750   -3.5540    1.8100 c2        1 2S0     -0.706000
     32 C31        -0.7820    6.7020   -3.4890 c3        1 2S0     -0.220000
     33 O30        -2.9240    7.6750   -2.7990 o         1 2S0     -0.347000
     34 O17        -2.4080    5.5770   -2.1750 os        1 2S0     -0.277000
     35 H1         -1.7240    1.1830   -1.3020 hc        1 2S0      0.108000
     36 H2         -0.1200   -0.8030    1.2050 hc        1 2S0      0.092500
     37 H3          1.4890    0.3410    2.1780 ha        1 2S0      0.117000
     38 H4          1.3150    1.1940    3.8140 ha        1 2S0      0.117000
     39 H5         -2.0010    1.7540    3.7710 hc        1 2S0      0.090500
     40 H6         -0.5010    2.6340    4.2710 hc        1 2S0      0.090500
     41 H7         -0.6850    4.1360    2.2860 hc        1 2S0      0.087500
     42 H8         -2.1730    4.2180    3.3080 hc        1 2S0      0.087500
     43 H10        -3.4620    2.9000    1.8240 hc        1 2S0      0.100000
     44 H11        -1.9300    3.3400   -1.9710 hc        1 2S0      0.095000
     45 H12        -3.5650    2.6570   -2.3380 hc        1 2S0      0.095000
     46 H13        -1.5250    4.5310    0.0510 hc        1 2S0      0.102000
     47 H14        -2.2040    6.2260    1.5730 hc        1 2S0      0.088000
     48 H15        -3.8580    5.5340    1.7920 hc        1 2S0      0.088000
     49 H16        -2.8410    7.3100   -0.4090 hc        1 2S0      0.114000
     50 H17        -4.5470    6.8860    0.0200 hc        1 2S0      0.114000
     51 H18        -5.3640    4.4880    0.3720 hc        1 2S0      0.087667
     52 H19        -4.8930    2.7300    0.3470 hc        1 2S0      0.087667
     53 H20        -5.5560    3.5080   -1.1400 hc        1 2S0      0.087667
     54 H21        -4.1260    4.3100   -3.7290 hc        1 2S0      0.108333
     55 H22        -5.7740    5.0290   -4.0470 hc        1 2S0      0.108333
     56 H23        -4.2840    6.0580   -4.2080 hc        1 2S0      0.108333
     57 H25        -4.2740    0.9820    1.4310 hc        1 2S0      0.118000
     58 H26        -3.0990   -0.3690    1.1280 hc        1 2S0      0.118000
     59 H27        -5.8250    0.5680   -3.1520 ha        1 2S0      0.131000
     60 H28        -4.6050   -0.8120   -3.4140 ha        1 2S0      0.131000
     61 H29        -8.4780   -1.1780    0.0760 hx        1 2S0      0.111667
     62 H30        -8.3910   -1.3400    1.9000 hx        1 2S0      0.111667
     63 H31        -9.1490   -2.6790    0.9110 hx        1 2S0      0.111667
     64 H32        -6.9940   -3.0640   -0.0980 hn        1 2S0      0.223000
     65 H33        -6.0470   -4.2530    1.6810 hx        1 2S0      0.111500
     66 H34        -7.1650   -3.2810    2.8250 hx        1 2S0      0.111500
     67 H35        -0.3700    5.6650   -3.4920 hc        1 2S0      0.116667
     68 H36        -0.8920    7.0680   -4.5380 hc        1 2S0      0.116667
     69 H37        -0.0810    7.3760   -2.9380 hc        1 2S0      0.116667
     70 H38        -1.3040   -0.5140   -0.1190 hc        1 2S0      0.092500
     71 H39         0.6630    1.2890   -0.9340 ha        1 2S0      0.183000
     72 C30        -2.1120    6.7490   -2.8170 c2        1 2S0      0.304000
@<TRIPOS>BOND
     1    1    2 1   
     2    1   10 1   
     3    1   36 1   
     4    1   70 1   
     5    2    3 1   
     6    2   71 1   
     7    3   21 1   
     8    4    5 1   
     9    4   37 1   
    10    4   38 1   
    11    5    6 1   
    12    5   10 1   
    13    6    7 1   
    14    6   39 1   
    15    6   40 1   
    16    7    8 1   
    17    7   41 1   
    18    7   42 1   
    19    8    9 1   
    20    8   14 1   
    21    8   43 1   
    22    9   10 1   
    23    9   11 1   
    24   11   12 1   
    25   11   23 1   
    26   11   35 1   
    27   12   13 1   
    28   12   44 1   
    29   12   45 1   
    30   13   14 1   
    31   13   17 1   
    32   13   18 1   
    33   14   15 1   
    34   14   46 1   
    35   15   16 1   
    36   15   47 1   
    37   15   48 1   
    38   16   17 1   
    39   16   49 1   
    40   16   50 1   
    41   17   19 1   
    42   17   34 1   
    43   18   51 1   
    44   18   52 1   
    45   18   53 1   
    46   19   20 1   
    47   19   22 1   
    48   20   54 1   
    49   20   55 1   
    50   20   56 1   
    51   23   24 1   
    52   23   28 1   
    53   24   25 1   
    54   24   57 1   
    55   24   58 1   
    56   25   26 1   
    57   26   29 1   
    58   27   28 1   
    59   27   59 1   
    60   27   60 1   
    61   29   30 1   
    62   29   31 1   
    63   29   64 1   
    64   30   61 1   
    65   30   62 1   
    66   30   63 1   
    67   31   65 1   
    68   31   66 1   
    69   32   67 1   
    70   32   68 1   
    71   32   69 1   
    72   32   72 1   
    73   33   72 1   
    74   34   72 1   
@<TRIPOS>SUBSTRUCTURE
     1 2S0         1 TEMP              0 ****  ****    0 ROOT
