@<TRIPOS>MOLECULE
2S2
   33    28     1     0     0
SMALL
bcc


@<TRIPOS>ATOM
      1 OAC        -2.4620    0.6160   -1.9220 o         1 2S2     -0.579500
      2 CAN        -1.3680    0.0030   -1.8200 c2        1 2S2      0.340000
      3 OAB        -0.8570   -0.5460   -2.8310 o         1 2S2     -0.579500
      4 CAR        -0.6480   -0.0430   -0.4900 c3        1 2S2     -0.123000
      5 CAL        -0.4550   -1.4840   -0.0710 c3        1 2S2     -0.129000
      6 CAK        -1.7390   -2.0100    0.5330 c3        1 2S2     -0.166000
      7 CAJ        -1.4710   -3.3360    1.2100 c3        1 2S2     -0.156000
      8 CAI        -2.7330   -3.8180    1.8920 c3        1 2S2     -0.206000
      9 CAO         0.7000    0.6280   -0.6230 c2        1 2S2     -0.097000
     10 CAQ         1.1220    1.8930   -0.2740 c1        1 2S2     -0.068000
     11 CAG         0.4900    2.9380    0.4230 c1        1 2S2     -0.139500
     12 CAE         1.1550    4.1380    0.6250 c1        1 2S2     -0.139500
     13 CAD         2.4450    4.3080    0.1390 c1        1 2S2     -0.139500
     14 CAF         3.0680    3.2770   -0.5490 c1        1 2S2     -0.139500
     15 CAP         2.3950    2.0610   -0.7540 c1        1 2S2     -0.020000
     16 NM          2.7650    0.8960   -1.4030 n1        1 2S2     -0.228000
     17 CAH         1.7220    0.0160   -1.3210 c1        1 2S2     -0.067000
     18 HAR        -1.1790    0.4230    0.1840 hc        1 2S2      0.087000
     19 HAL        -0.2180   -2.0220   -0.8530 hc        1 2S2      0.067000
     20 HALA        0.2630   -1.5380    0.5920 hc        1 2S2      0.067000
     21 HAK        -2.0750   -1.3700    1.1920 hc        1 2S2      0.094000
     22 HAKA       -2.4050   -2.1330   -0.1720 hc        1 2S2      0.094000
     23 HAJ        -1.1910   -3.9930    0.5420 hc        1 2S2      0.068000
     24 HAJA       -0.7630   -3.2260    1.8760 hc        1 2S2      0.068000
     25 HAI        -3.0730   -3.1150    2.4850 hc        1 2S2      0.061667
     26 HAIA       -2.5340   -4.6210    2.4180 hc        1 2S2      0.061667
     27 HAIB       -3.4100   -4.0300    1.2160 hc        1 2S2      0.061667
     28 HAG        -0.4160    2.8180    0.7650 ha        1 2S2      0.115750
     29 HAE         0.7160    4.8630    1.1090 ha        1 2S2      0.115750
     30 HAD         2.9120    5.1530    0.2810 ha        1 2S2      0.115750
     31 HAF         3.9790    3.3930   -0.8800 ha        1 2S2      0.115750
     32 HAH         1.6970   -0.8810   -1.7050 DU        1 2S2      0.221500
     33 HNM         3.5650    0.7420   -1.8130 DU        1 2S2      0.221500
@<TRIPOS>BOND
     1    1    2 1   
     2    2    3 1   
     3    2    4 1   
     4    4    5 1   
     5    4    9 1   
     6    4   18 1   
     7    5    6 1   
     8    5   19 1   
     9    5   20 1   
    10    6    7 1   
    11    6   21 1   
    12    6   22 1   
    13    7    8 1   
    14    7   23 1   
    15    7   24 1   
    16    8   25 1   
    17    8   26 1   
    18    8   27 1   
    19    9   10 1   
    20    9   17 1   
    21   10   15 1   
    22   11   12 1   
    23   11   28 1   
    24   12   29 1   
    25   13   14 1   
    26   13   30 1   
    27   14   31 1   
    28   16   17 1   
@<TRIPOS>SUBSTRUCTURE
     1 2S2         1 TEMP              0 ****  ****    0 ROOT
