@<TRIPOS>MOLECULE
2S2
   33    34     1     0     0
SMALL
bcc


@<TRIPOS>ATOM
      1 OAC         0.2450   -0.0490   -0.6150 o         1 2S2     -0.844800
      2 CAN         1.3370   -0.6270   -0.3520 c         1 2S2      0.920600
      3 OAB         1.8260   -1.5580   -1.0560 o         1 2S2     -0.844800
      4 CAR         2.0820   -0.1700    0.9350 c3        1 2S2     -0.129500
      5 CAL         1.7870   -1.1650    2.0520 c3        1 2S2     -0.050400
      6 CAK         0.3490   -1.0480    2.5140 c3        1 2S2     -0.087400
      7 CAJ        -0.0250   -2.1750    3.4520 c3        1 2S2     -0.077400
      8 CAI        -1.4450   -2.0420    3.9410 c3        1 2S2     -0.088100
      9 CAO         3.5340   -0.0210    0.7340 cc        1 2S2     -0.089400
     10 CAQ         4.4180    0.8960    1.4350 ca        1 2S2     -0.079800
     11 CAG         4.2360    1.8440    2.4390 ca        1 2S2     -0.084000
     12 CAE         5.3300    2.5780    2.8840 ca        1 2S2     -0.178000
     13 CAD         6.6090    2.3790    2.3440 ca        1 2S2     -0.138000
     14 CAF         6.8370    1.4400    1.3460 ca        1 2S2     -0.158000
     15 CAP         5.7450    0.6940    0.8850 ca        1 2S2     -0.065200
     16 NM          5.6730   -0.3420   -0.0540 na        1 2S2     -0.205400
     17 CAH         4.3220   -0.7210   -0.1750 cd        1 2S2     -0.094100
     18 HAR         1.6610    0.8340    1.2260 hc        1 2S2      0.047700
     19 HAL         1.9810   -2.2010    1.6700 hc        1 2S2      0.027700
     20 HALA        2.4760   -0.9860    2.9190 hc        1 2S2      0.027700
     21 HAK         0.1980   -0.0640    3.0310 hc        1 2S2      0.054700
     22 HAKA       -0.3220   -1.0530    1.6110 hc        1 2S2      0.054700
     23 HAJ         0.0990   -3.1560    2.9220 hc        1 2S2      0.028700
     24 HAJA        0.6750   -2.1840    4.3290 hc        1 2S2      0.028700
     25 HAI        -2.1550   -2.0420    3.0790 hc        1 2S2      0.022367
     26 HAIA       -1.5800   -1.0860    4.5030 hc        1 2S2      0.022367
     27 HAIB       -1.7090   -2.8900    4.6180 hc        1 2S2      0.022367
     28 HAG         3.2350    2.0040    2.8640 ha        1 2S2      0.133000
     29 HAE         5.1940    3.3310    3.6730 ha        1 2S2      0.110000
     30 HAD         7.4490    2.9800    2.7190 ha        1 2S2      0.107000
     31 HAF         7.8410    1.2900    0.9310 ha        1 2S2      0.113000
     32 HAH         3.9830   -1.4780   -0.8960 h4        1 2S2      0.220000
     33 HNM         6.3410   -0.4710   -0.7660 hn        1 2S2      0.272700
@<TRIPOS>BOND
     1    1    2 1   
     2    2    3 1   
     3    2    4 1   
     4    4    5 1   
     5    4    9 1   
     6    4   18 1   
     7    5    6 1   
     8    5   19 1   
     9    5   20 1   
    10    6    7 1   
    11    6   21 1   
    12    6   22 1   
    13    7    8 1   
    14    7   23 1   
    15    7   24 1   
    16    8   25 1   
    17    8   26 1   
    18    8   27 1   
    19    9   10 1   
    20    9   17 2   
    21   10   11 ar  
    22   10   15 ar  
    23   11   12 ar  
    24   11   28 1   
    25   12   13 ar  
    26   12   29 1   
    27   13   14 ar  
    28   13   30 1   
    29   14   15 ar  
    30   14   31 1   
    31   15   16 1   
    32   16   17 1   
    33   16   33 1   
    34   17   32 1   
@<TRIPOS>SUBSTRUCTURE
     1 2S2         1 TEMP              0 ****  ****    0 ROOT
