@<TRIPOS>MOLECULE
2S2
   33    34     1     0     0
SMALL
bcc


@<TRIPOS>ATOM
      1 OAC         0.2460   -0.0640   -0.6160 o         1 2S2     -0.844800
      2 CAN         1.3400   -0.6370   -0.3520 c         1 2S2      0.920600
      3 OAB         1.8340   -1.5670   -1.0540 o         1 2S2     -0.844800
      4 CAR         2.0830   -0.1740    0.9350 c3        1 2S2     -0.129500
      5 CAL         1.7900   -1.1680    2.0540 c3        1 2S2     -0.050400
      6 CAK         0.3520   -1.0560    2.5140 c3        1 2S2     -0.087400
      7 CAJ        -0.0180   -2.1830    3.4550 c3        1 2S2     -0.077400
      8 CAI        -1.4380   -2.0540    3.9420 c3        1 2S2     -0.088100
      9 CAO         3.5340   -0.0200    0.7340 cc        1 2S2     -0.089400
     10 CAQ         4.4130    0.9020    1.4340 ca        1 2S2     -0.079800
     11 CAG         4.2270    1.8520    2.4350 ca        1 2S2     -0.084000
     12 CAE         5.3180    2.5910    2.8800 ca        1 2S2     -0.178000
     13 CAD         6.5980    2.3960    2.3410 ca        1 2S2     -0.138000
     14 CAF         6.8300    1.4560    1.3440 ca        1 2S2     -0.158000
     15 CAP         5.7420    0.7040    0.8850 ca        1 2S2     -0.065200
     16 NM          5.6750   -0.3340   -0.0520 na        1 2S2     -0.205400
     17 CAH         4.3250   -0.7180   -0.1730 cd        1 2S2     -0.094100
     18 HAR         1.6570    0.8290    1.2240 hc        1 2S2      0.047700
     19 HAL         1.9890   -2.2050    1.6740 hc        1 2S2      0.027700
     20 HALA        2.4780   -0.9850    2.9210 hc        1 2S2      0.027700
     21 HAK         0.1970   -0.0720    3.0300 hc        1 2S2      0.054700
     22 HAKA       -0.3190   -1.0660    1.6110 hc        1 2S2      0.054700
     23 HAJ         0.6820   -2.1870    4.3320 hc        1 2S2      0.028700
     24 HAJA        0.1100   -3.1640    2.9260 hc        1 2S2      0.028700
     25 HAI        -1.7000   -2.9020    4.6210 hc        1 2S2      0.022367
     26 HAIA       -2.1490   -2.0590    3.0800 hc        1 2S2      0.022367
     27 HAIB       -1.5780   -1.0980    4.5030 hc        1 2S2      0.022367
     28 HAG         3.2250    2.0080    2.8590 ha        1 2S2      0.133000
     29 HAE         5.1790    3.3450    3.6670 ha        1 2S2      0.110000
     30 HAD         7.4350    3.0020    2.7150 ha        1 2S2      0.107000
     31 HAF         7.8350    1.3090    0.9300 ha        1 2S2      0.113000
     32 HAH         3.9900   -1.4790   -0.8920 h4        1 2S2      0.220000
     33 HNM         6.3440   -0.4620   -0.7630 hn        1 2S2      0.272700
@<TRIPOS>BOND
     1    1    2 1   
     2    2    3 1   
     3    2    4 1   
     4    4    5 1   
     5    4    9 1   
     6    4   18 1   
     7    5    6 1   
     8    5   19 1   
     9    5   20 1   
    10    6    7 1   
    11    6   21 1   
    12    6   22 1   
    13    7    8 1   
    14    7   23 1   
    15    7   24 1   
    16    8   25 1   
    17    8   26 1   
    18    8   27 1   
    19    9   10 1   
    20    9   17 2   
    21   10   11 ar  
    22   10   15 ar  
    23   11   12 ar  
    24   11   28 1   
    25   12   13 ar  
    26   12   29 1   
    27   13   14 ar  
    28   13   30 1   
    29   14   15 ar  
    30   14   31 1   
    31   15   16 1   
    32   16   17 1   
    33   16   33 1   
    34   17   32 1   
@<TRIPOS>SUBSTRUCTURE
     1 2S2         1 TEMP              0 ****  ****    0 ROOT
