@<TRIPOS>MOLECULE
2S2
   33    34     1     0     0
SMALL
bcc


@<TRIPOS>ATOM
      1 OAC        -2.2510   -2.2020   -1.2550 o         1 2S2     -0.844800
      2 CAN        -1.5670   -1.9120   -0.2340 c         1 2S2      0.920600
      3 OAB        -1.4600   -2.6640    0.7780 o         1 2S2     -0.844800
      4 CAR        -0.8550   -0.5270   -0.2350 c3        1 2S2     -0.129500
      5 CAL        -1.6900    0.4550    0.5790 c3        1 2S2     -0.050400
      6 CAK        -2.9710    0.8070   -0.1480 c3        1 2S2     -0.087400
      7 CAJ        -3.9140    1.5920    0.7390 c3        1 2S2     -0.077400
      8 CAI        -5.1750    1.9740    0.0080 c3        1 2S2     -0.088100
      9 CAO         0.5260   -0.5930    0.2750 cc        1 2S2     -0.089400
     10 CAQ         1.6330    0.2680   -0.1060 ca        1 2S2     -0.079800
     11 CAG         1.7720    1.3440   -0.9780 ca        1 2S2     -0.084000
     12 CAE         3.0160    1.9500   -1.1150 ca        1 2S2     -0.178000
     13 CAD         4.1290    1.4990   -0.3910 ca        1 2S2     -0.138000
     14 CAF         4.0350    0.4320    0.4940 ca        1 2S2     -0.158000
     15 CAP         2.7890   -0.1900    0.6420 ca        1 2S2     -0.065200
     16 NM          2.3790   -1.2330    1.4820 na        1 2S2     -0.205400
     17 CAH         1.0250   -1.5020    1.2040 cd        1 2S2     -0.094100
     18 HAR        -0.8200   -0.1710   -1.3040 hc        1 2S2      0.047700
     19 HAL        -1.9300   -0.0140    1.5690 hc        1 2S2      0.027700
     20 HALA       -1.1010    1.3890    0.7780 hc        1 2S2      0.027700
     21 HAK        -2.7320    1.4070   -1.0640 hc        1 2S2      0.054700
     22 HAKA       -3.4630   -0.1440   -0.4940 hc        1 2S2      0.054700
     23 HAJ        -4.1750    0.9760    1.6400 hc        1 2S2      0.028700
     24 HAJA       -3.3990    2.5170    1.1110 hc        1 2S2      0.028700
     25 HAI        -4.9390    2.6180   -0.8740 hc        1 2S2      0.022367
     26 HAIA       -5.7040    1.0610   -0.3590 hc        1 2S2      0.022367
     27 HAIB       -5.8650    2.5370    0.6810 hc        1 2S2      0.022367
     28 HAG         0.9020    1.7000   -1.5480 ha        1 2S2      0.133000
     29 HAE         3.1350    2.7980   -1.8040 ha        1 2S2      0.110000
     30 HAD         5.0980    2.0000   -0.5290 ha        1 2S2      0.107000
     31 HAF         4.9110    0.0870    1.0580 ha        1 2S2      0.113000
     32 HAH         0.4740   -2.3210    1.6870 h4        1 2S2      0.220000
     33 HNM         3.0010   -1.8970    1.8590 hn        1 2S2      0.272700
@<TRIPOS>BOND
     1    1    2 1   
     2    2    3 1   
     3    2    4 1   
     4    4    5 1   
     5    4    9 1   
     6    4   18 1   
     7    5    6 1   
     8    5   19 1   
     9    5   20 1   
    10    6    7 1   
    11    6   21 1   
    12    6   22 1   
    13    7    8 1   
    14    7   23 1   
    15    7   24 1   
    16    8   25 1   
    17    8   26 1   
    18    8   27 1   
    19    9   10 1   
    20    9   17 2   
    21   10   11 ar  
    22   10   15 ar  
    23   11   12 ar  
    24   11   28 1   
    25   12   13 ar  
    26   12   29 1   
    27   13   14 ar  
    28   13   30 1   
    29   14   15 ar  
    30   14   31 1   
    31   15   16 1   
    32   16   17 1   
    33   16   33 1   
    34   17   32 1   
@<TRIPOS>SUBSTRUCTURE
     1 2S2         1 TEMP              0 ****  ****    0 ROOT
