@<TRIPOS>MOLECULE
2S3
   30    25     1     0     0
SMALL
bcc


@<TRIPOS>ATOM
      1 OAC        -0.5660   -0.2020   -3.1510 o         1 2S3     -0.580000
      2 CAM        -1.0340   -0.7380   -2.1120 c2        1 2S3      0.340000
      3 OAB        -2.1600   -1.2960   -2.1460 o         1 2S3     -0.580000
      4 CAQ        -0.2300   -0.7330   -0.8310 c3        1 2S3     -0.123000
      5 CAK         1.2030   -1.0980   -1.1340 c3        1 2S3     -0.129000
      6 CAJ         1.3250   -2.6000   -1.2560 c3        1 2S3     -0.169000
      7 CAI         2.7610   -2.9670   -1.5620 c3        1 2S3     -0.202000
      8 CAN        -0.2790    0.6500   -0.2090 c2        1 2S3     -0.097000
      9 CAP        -0.8540    1.0310    0.9840 c1        1 2S3     -0.068000
     10 CAG        -1.4690    0.2940    2.0110 c1        1 2S3     -0.084000
     11 CAE        -1.9740    0.9460    3.1270 c1        1 2S3     -0.158000
     12 CAD        -1.8710    2.3270    3.2300 c1        1 2S3     -0.158000
     13 CAF        -1.2640    3.0560    2.2160 c1        1 2S3     -0.158000
     14 CAO        -0.7520    2.3960    1.0860 c1        1 2S3     -0.020000
     15 NL         -0.1120    2.8630   -0.0490 n1        1 2S3     -0.228000
     16 CAH         0.1790    1.7890   -0.8440 c1        1 2S3     -0.067000
     17 HAQ        -0.6070   -1.3830   -0.2080 hc        1 2S3      0.087000
     18 HAK         1.7800   -0.7820   -0.4120 hc        1 2S3      0.067000
     19 HAKA        1.4750   -0.6800   -1.9750 hc        1 2S3      0.067000
     20 HAJ         0.7470   -2.9170   -1.9790 hc        1 2S3      0.093000
     21 HAJA        1.0540   -3.0190   -0.4150 hc        1 2S3      0.093000
     22 HAI         3.0610   -2.4790   -2.3590 hc        1 2S3      0.056000
     23 HAIA        2.8240   -3.9310   -1.7270 hc        1 2S3      0.056000
     24 HAIB        3.3290   -2.7280   -0.8000 hc        1 2S3      0.056000
     25 HAG        -1.5830   -0.6700    2.1300 ha        1 2S3      0.133000
     26 HAE        -2.3050    0.4840    3.9210 ha        1 2S3      0.108500
     27 HAD        -2.1800    2.8110    4.0210 ha        1 2S3      0.108500
     28 HAF        -1.2050    4.0160    2.3910 ha        1 2S3      0.113000
     29 HNL         0.0810    3.7350   -0.2340 DU        1 2S3      0.221000
     30 HAH         0.6270    1.8220   -1.7120 DU        1 2S3      0.221000
@<TRIPOS>BOND
     1    1    2 1   
     2    2    3 1   
     3    2    4 1   
     4    4    5 1   
     5    4    8 1   
     6    4   17 1   
     7    5    6 1   
     8    5   18 1   
     9    5   19 1   
    10    6    7 1   
    11    6   20 1   
    12    6   21 1   
    13    7   22 1   
    14    7   23 1   
    15    7   24 1   
    16    8    9 1   
    17    8   16 1   
    18    9   10 1   
    19   10   25 1   
    20   11   12 1   
    21   11   26 1   
    22   12   27 1   
    23   13   14 1   
    24   13   28 1   
    25   15   16 1   
@<TRIPOS>SUBSTRUCTURE
     1 2S3         1 TEMP              0 ****  ****    0 ROOT
