@<TRIPOS>MOLECULE
2S3
   30    31     1     0     0
SMALL
bcc


@<TRIPOS>ATOM
      1 OAC         1.0870   -0.5340   -1.0560 o         1 2S3     -0.845300
      2 CAM         1.6150    0.4360   -0.4440 c         1 2S3      0.920600
      3 OAB         1.8950    1.5430   -0.9890 o         1 2S3     -0.845300
      4 CAQ         1.9620    0.2130    1.0580 c3        1 2S3     -0.129500
      5 CAK         3.4470   -0.1120    1.1750 c3        1 2S3     -0.050400
      6 CAJ         3.7460   -1.4890    0.6200 c3        1 2S3     -0.090400
      7 CAI         5.2280   -1.7400    0.5220 c3        1 2S3     -0.084100
      8 CAN         1.6060    1.3660    1.9030 cc        1 2S3     -0.089400
      9 CAP         1.2230    1.3280    3.3050 ca        1 2S3     -0.079800
     10 CAG         1.0800    0.3120    4.2460 ca        1 2S3     -0.084000
     11 CAE         0.6730    0.6340    5.5360 ca        1 2S3     -0.178000
     12 CAD         0.4070    1.9610    5.9050 ca        1 2S3     -0.138000
     13 CAF         0.5410    3.0070    5.0000 ca        1 2S3     -0.158000
     14 CAO         0.9500    2.6980    3.6970 ca        1 2S3     -0.065200
     15 NL          1.2210    3.5260    2.6000 na        1 2S3     -0.205400
     16 CAH         1.5580    2.7000    1.5110 cd        1 2S3     -0.094100
     17 HAQ         1.3690   -0.6780    1.4080 hc        1 2S3      0.047700
     18 HAK         3.7680   -0.0620    2.2490 hc        1 2S3      0.027700
     19 HAKA        4.0300    0.6610    0.6100 hc        1 2S3      0.027700
     20 HAJ         3.2760   -2.2670    1.2760 hc        1 2S3      0.053700
     21 HAJA        3.2660   -1.5780   -0.3940 hc        1 2S3      0.053700
     22 HAI         5.4260   -2.7680    0.1310 hc        1 2S3      0.016700
     23 HAIA        5.7060   -1.0040   -0.1690 hc        1 2S3      0.016700
     24 HAIB        5.7150   -1.6450    1.5230 hc        1 2S3      0.016700
     25 HAG         1.2870   -0.7300    3.9600 ha        1 2S3      0.133000
     26 HAE         0.5540   -0.1620    6.2840 ha        1 2S3      0.110000
     27 HAD         0.0840    2.1770    6.9330 ha        1 2S3      0.107000
     28 HAF         0.3330    4.0420    5.2980 ha        1 2S3      0.113000
     29 HNL         0.8440    4.4310    2.5030 hn        1 2S3      0.271700
     30 HAH         1.7600    3.1010    0.5070 h4        1 2S3      0.220000
@<TRIPOS>BOND
     1    1    2 1   
     2    2    3 1   
     3    2    4 1   
     4    4    5 1   
     5    4    8 1   
     6    4   17 1   
     7    5    6 1   
     8    5   18 1   
     9    5   19 1   
    10    6    7 1   
    11    6   20 1   
    12    6   21 1   
    13    7   22 1   
    14    7   23 1   
    15    7   24 1   
    16    8    9 1   
    17    8   16 2   
    18    9   10 ar  
    19    9   14 ar  
    20   10   11 ar  
    21   10   25 1   
    22   11   12 ar  
    23   11   26 1   
    24   12   13 ar  
    25   12   27 1   
    26   13   14 ar  
    27   13   28 1   
    28   14   15 1   
    29   15   16 1   
    30   15   29 1   
    31   16   30 1   
@<TRIPOS>SUBSTRUCTURE
     1 2S3         1 TEMP              0 ****  ****    0 ROOT
