@<TRIPOS>MOLECULE
2S3
   30    31     1     0     0
SMALL
bcc


@<TRIPOS>ATOM
      1 OAC         1.1050   -0.5730   -1.0480 o         1 2S3     -0.845300
      2 CAM         1.6030    0.4140   -0.4400 c         1 2S3      0.920600
      3 OAB         1.8410    1.5300   -0.9870 o         1 2S3     -0.845300
      4 CAQ         1.9680    0.2050    1.0590 c3        1 2S3     -0.129500
      5 CAK         3.4650   -0.0680    1.1670 c3        1 2S3     -0.050400
      6 CAJ         3.8080   -1.4340    0.6090 c3        1 2S3     -0.090400
      7 CAI         5.2970   -1.6330    0.5000 c3        1 2S3     -0.084100
      8 CAN         1.5790    1.3450    1.9070 cc        1 2S3     -0.089400
      9 CAP         1.2080    1.2940    3.3120 ca        1 2S3     -0.079800
     10 CAG         1.1070    0.2740    4.2540 ca        1 2S3     -0.084000
     11 CAE         0.6990    0.5830    5.5470 ca        1 2S3     -0.178000
     12 CAD         0.3890    1.9000    5.9180 ca        1 2S3     -0.138000
     13 CAF         0.4800    2.9490    5.0120 ca        1 2S3     -0.158000
     14 CAO         0.8890    2.6540    3.7050 ca        1 2S3     -0.065200
     15 NL          1.1240    3.4910    2.6070 na        1 2S3     -0.205400
     16 CAH         1.4820    2.6770    1.5150 cd        1 2S3     -0.094100
     17 HAQ         1.4090   -0.7070    1.4140 hc        1 2S3      0.047700
     18 HAK         4.0160    0.7250    0.5960 hc        1 2S3      0.027700
     19 HAKA        3.7910   -0.0060    2.2380 hc        1 2S3      0.027700
     20 HAJ         3.3240   -1.5400   -0.4010 hc        1 2S3      0.053700
     21 HAJA        3.3700   -2.2280    1.2690 hc        1 2S3      0.053700
     22 HAI         5.7870   -1.5210    1.4980 hc        1 2S3      0.016700
     23 HAIA        5.7440   -0.8810   -0.1940 hc        1 2S3      0.016700
     24 HAIB        5.5270   -2.6540    0.1080 hc        1 2S3      0.016700
     25 HAG         1.3480   -0.7590    3.9670 ha        1 2S3      0.133000
     26 HAE         0.6130   -0.2170    6.2960 ha        1 2S3      0.110000
     27 HAD         0.0660    2.1040    6.9480 ha        1 2S3      0.107000
     28 HAF         0.2380    3.9760    5.3110 ha        1 2S3      0.113000
     29 HNL         0.7140    4.3810    2.5120 hn        1 2S3      0.271700
     30 HAH         1.6610    3.0830    0.5090 h4        1 2S3      0.220000
@<TRIPOS>BOND
     1    1    2 1   
     2    2    3 1   
     3    2    4 1   
     4    4    5 1   
     5    4    8 1   
     6    4   17 1   
     7    5    6 1   
     8    5   18 1   
     9    5   19 1   
    10    6    7 1   
    11    6   20 1   
    12    6   21 1   
    13    7   22 1   
    14    7   23 1   
    15    7   24 1   
    16    8    9 1   
    17    8   16 2   
    18    9   10 ar  
    19    9   14 ar  
    20   10   11 ar  
    21   10   25 1   
    22   11   12 ar  
    23   11   26 1   
    24   12   13 ar  
    25   12   27 1   
    26   13   14 ar  
    27   13   28 1   
    28   14   15 1   
    29   15   16 1   
    30   15   29 1   
    31   16   30 1   
@<TRIPOS>SUBSTRUCTURE
     1 2S3         1 TEMP              0 ****  ****    0 ROOT
