@<TRIPOS>MOLECULE
2S3
   30    31     1     0     0
SMALL
bcc


@<TRIPOS>ATOM
      1 OAC         2.8150    1.8820   -1.0490 o         1 2S3     -0.845300
      2 CAM         2.1450    1.5080   -0.0460 c         1 2S3      0.920600
      3 OAB         2.2000    2.0720    1.0850 o         1 2S3     -0.845300
      4 CAQ         1.2370    0.2580   -0.2350 c3        1 2S3     -0.129500
      5 CAK         1.9570   -0.9620    0.3310 c3        1 2S3     -0.050400
      6 CAJ         3.1350   -1.3470   -0.5390 c3        1 2S3     -0.090400
      7 CAI         3.9880   -2.4040    0.1130 c3        1 2S3     -0.084100
      8 CAN        -0.0910    0.4170    0.3820 cc        1 2S3     -0.089400
      9 CAP        -1.3320   -0.1990   -0.0580 ca        1 2S3     -0.079800
     10 CAG        -1.6720   -1.0670   -1.0920 ca        1 2S3     -0.084000
     11 CAE        -2.9980   -1.4620   -1.2380 ca        1 2S3     -0.178000
     12 CAD        -3.9940   -1.0030   -0.3640 ca        1 2S3     -0.138000
     13 CAF        -3.6990   -0.1390    0.6830 ca        1 2S3     -0.158000
     14 CAO        -2.3690    0.2680    0.8440 ca        1 2S3     -0.065200
     15 NL         -1.7670    1.0720    1.8190 na        1 2S3     -0.205400
     16 CAH        -0.4040    1.2000    1.4900 cd        1 2S3     -0.094100
     17 HAQ         1.0970    0.1110   -1.3430 hc        1 2S3      0.047700
     18 HAK         2.3130   -0.7210    1.3670 hc        1 2S3      0.027700
     19 HAKA        1.2470   -1.8270    0.4070 hc        1 2S3      0.027700
     20 HAJ         2.7630   -1.7240   -1.5280 hc        1 2S3      0.053700
     21 HAJA        3.7450   -0.4240   -0.7470 hc        1 2S3      0.053700
     22 HAI         4.4100   -2.0270    1.0770 hc        1 2S3      0.016700
     23 HAIA        3.3890   -3.3210    0.3300 hc        1 2S3      0.016700
     24 HAIB        4.8370   -2.6880   -0.5540 hc        1 2S3      0.016700
     25 HAG        -0.8940   -1.4290   -1.7790 ha        1 2S3      0.133000
     26 HAE        -3.2750   -2.1440   -2.0540 ha        1 2S3      0.110000
     27 HAD        -5.0320   -1.3330   -0.5140 ha        1 2S3      0.107000
     28 HAF        -4.4850    0.2130    1.3630 ha        1 2S3      0.113000
     29 HNL        -2.2640    1.7360    2.3510 hn        1 2S3      0.271700
     30 HAH         0.2860    1.8330    2.0660 h4        1 2S3      0.220000
@<TRIPOS>BOND
     1    1    2 1   
     2    2    3 1   
     3    2    4 1   
     4    4    5 1   
     5    4    8 1   
     6    4   17 1   
     7    5    6 1   
     8    5   18 1   
     9    5   19 1   
    10    6    7 1   
    11    6   20 1   
    12    6   21 1   
    13    7   22 1   
    14    7   23 1   
    15    7   24 1   
    16    8    9 1   
    17    8   16 2   
    18    9   10 ar  
    19    9   14 ar  
    20   10   11 ar  
    21   10   25 1   
    22   11   12 ar  
    23   11   26 1   
    24   12   13 ar  
    25   12   27 1   
    26   13   14 ar  
    27   13   28 1   
    28   14   15 1   
    29   15   16 1   
    30   15   29 1   
    31   16   30 1   
@<TRIPOS>SUBSTRUCTURE
     1 2S3         1 TEMP              0 ****  ****    0 ROOT
