@<TRIPOS>MOLECULE
2S4
   50    51     1     0     0
SMALL
bcc


@<TRIPOS>ATOM
      1 C1          0.9020    0.4630   -1.0090 ca        1 2S4     -0.225000
      2 C2          1.6820   -0.7050   -0.9390 ca        1 2S4     -0.209300
      3 C3          0.3810    1.0340    0.1500 ca        1 2S4      0.107100
      4 C8         -1.2620    2.6590    0.8000 c3        1 2S4      0.123700
      5 C10        -0.0780    0.2000    3.7010 c3        1 2S4      0.101700
      6 C11         2.3210   -1.2000   -2.1810 c3        1 2S4     -0.077100
      7 C12         3.1100   -0.1400   -2.8990 c         1 2S4      0.586100
      8 C14         3.1710    2.3870   -2.5920 c2        1 2S4      0.612100
      9 C19         4.2250    4.3440   -5.6820 ca        1 2S4     -0.250300
     10 C20         6.0850    5.4870   -6.7280 ca        1 2S4     -0.132000
     11 C21         5.7210    4.9570   -7.9780 ca        1 2S4      0.031700
     12 C22         5.3470    5.1860   -5.5910 ca        1 2S4     -0.075000
     13 C24         3.8590    3.8070   -6.9290 ca        1 2S4     -0.075000
     14 O15         3.4250   -0.0550   -4.0730 o         1 2S4     -0.438100
     15 C4          1.8180   -1.3740    0.2760 ca        1 2S4     -0.061000
     16 C6          1.2160   -0.8650    1.4290 ca        1 2S4     -0.173000
     17 C5          0.5150    0.3460    1.3930 ca        1 2S4      0.145100
     18 O9         -0.0570    0.9460    2.4770 os        1 2S4     -0.311900
     19 O7         -0.1330    2.2980   -0.0130 os        1 2S4     -0.371900
     20 N13         3.6190    1.0440   -2.0430 n4        1 2S4     -0.730800
     21 N17         2.2530    3.1280   -2.1130 n2        1 2S4     -0.617100
     22 N16         3.9110    2.8040   -3.8240 n4        1 2S4     -0.759000
     23 C18         3.3900    4.0920   -4.4930 c3        1 2S4      0.223100
     24 C23         4.6010    4.1110   -8.0620 ca        1 2S4     -0.132000
     25 C25         6.4910    5.3020   -9.1910 c3        1 2S4     -0.090800
     26 H1          0.6350    0.8980   -1.9840 ha        1 2S4      0.140000
     27 H2         -1.6890    3.5430    0.2620 h1        1 2S4      0.072033
     28 H3         -0.9030    2.9390    1.8210 h1        1 2S4      0.072033
     29 H4         -1.9970    1.8220    0.8520 h1        1 2S4      0.072033
     30 H5         -0.6550    0.8730    4.3890 h1        1 2S4      0.072367
     31 H6          0.9620    0.0460    4.0760 h1        1 2S4      0.072367
     32 H7         -0.6070   -0.7730    3.5580 h1        1 2S4      0.072367
     33 H8          1.5400   -1.5670   -2.9160 hc        1 2S4      0.150200
     34 H9          3.0200   -2.0640   -1.9780 hc        1 2S4      0.150200
     35 H10         6.9570    6.1590   -6.6560 ha        1 2S4      0.173000
     36 H11         5.6290    5.6320   -4.6240 ha        1 2S4      0.140500
     37 H12         2.9680    3.1650   -7.0170 ha        1 2S4      0.140500
     38 H13         2.3890   -2.3160    0.3380 ha        1 2S4      0.165000
     39 H14         1.3060   -1.4270    2.3750 ha        1 2S4      0.182000
     40 H15         3.2440    0.9350   -1.0810 hn        1 2S4      0.486300
     41 H16         1.6930    2.8990   -1.3050 hn        1 2S4      0.540400
     42 H17         4.9020    2.9580   -3.5870 hn        1 2S4      0.475800
     43 H18         3.4670    4.9210   -3.7340 hx        1 2S4      0.123200
     44 H19         2.3100    3.9120   -4.7580 hx        1 2S4      0.123200
     45 H20         4.3050    3.6980   -9.0420 ha        1 2S4      0.173000
     46 H21         6.0540    6.2220   -9.6620 hc        1 2S4      0.080033
     47 H22         6.4530    4.4760   -9.9440 hc        1 2S4      0.080033
     48 H23         7.5620    5.5140   -8.9450 hc        1 2S4      0.080033
     49 H132        4.6430    1.0020   -1.9870 hn        1 2S4      0.486300
     50 H162        3.8560    2.0460   -4.5290 hn        1 2S4      0.475800
@<TRIPOS>BOND
     1    1    2 ar  
     2    1    3 ar  
     3    1   26 1   
     4    2    6 1   
     5    2   15 ar  
     6    3   17 ar  
     7    3   19 1   
     8    4   19 1   
     9    4   27 1   
    10    4   28 1   
    11    4   29 1   
    12    5   18 1   
    13    5   30 1   
    14    5   31 1   
    15    5   32 1   
    16    6    7 1   
    17    6   33 1   
    18    6   34 1   
    19    7   14 2   
    20    7   20 1   
    21    8   20 1   
    22    8   21 2   
    23    8   22 1   
    24    9   12 ar  
    25    9   13 ar  
    26    9   23 1   
    27   10   11 ar  
    28   10   12 ar  
    29   10   35 1   
    30   11   24 ar  
    31   11   25 1   
    32   12   36 1   
    33   13   24 ar  
    34   13   37 1   
    35   15   16 ar  
    36   15   38 1   
    37   16   17 ar  
    38   16   39 1   
    39   17   18 1   
    40   20   40 1   
    41   20   49 1   
    42   21   41 1   
    43   22   23 1   
    44   22   42 1   
    45   22   50 1   
    46   23   43 1   
    47   23   44 1   
    48   24   45 1   
    49   25   46 1   
    50   25   47 1   
    51   25   48 1   
@<TRIPOS>SUBSTRUCTURE
     1 2S4         1 TEMP              0 ****  ****    0 ROOT
