@<TRIPOS>MOLECULE
2S4
   50    51     1     0     0
SMALL
bcc


@<TRIPOS>ATOM
      1 C1          0.8720    0.4970   -1.0090 ca        1 2S4     -0.225000
      2 C2          1.6230   -0.6910   -0.9520 ca        1 2S4     -0.209300
      3 C3          0.3720    1.0730    0.1580 ca        1 2S4      0.107100
      4 C8         -1.2250    2.7330    0.8290 c3        1 2S4      0.123700
      5 C10        -0.0840    0.2270    3.7070 c3        1 2S4      0.101700
      6 C11         2.2410   -1.1930   -2.2010 c3        1 2S4     -0.077100
      7 C12         3.0510   -0.1480   -2.9170 c         1 2S4      0.586100
      8 C14         3.1780    2.3740   -2.5940 c2        1 2S4      0.612100
      9 C19         4.2610    4.3270   -5.6770 ca        1 2S4     -0.250300
     10 C20         6.1430    5.4280   -6.7270 ca        1 2S4     -0.132000
     11 C21         5.7560    4.9170   -7.9780 ca        1 2S4      0.031700
     12 C22         5.4060    5.1370   -5.5870 ca        1 2S4     -0.075000
     13 C24         3.8720    3.8090   -6.9250 ca        1 2S4     -0.075000
     14 O15         3.3600   -0.0630   -4.0930 o         1 2S4     -0.438100
     15 C4          1.7500   -1.3710    0.2580 ca        1 2S4     -0.061000
     16 C6          1.1680   -0.8550    1.4190 ca        1 2S4     -0.173000
     17 C5          0.4970    0.3730    1.3950 ca        1 2S4      0.145100
     18 O9         -0.0520    0.9800    2.4870 os        1 2S4     -0.311900
     19 O7         -0.1110    2.3500    0.0070 os        1 2S4     -0.371900
     20 N13         3.5950    1.0170   -2.0570 n4        1 2S4     -0.730800
     21 N17         2.2810    3.1350   -2.1040 n2        1 2S4     -0.617100
     22 N16         3.9200    2.7800   -3.8280 n4        1 2S4     -0.759000
     23 C18         3.4280    4.0870   -4.4840 c3        1 2S4      0.223100
     24 C23         4.6140    4.1030   -8.0610 ca        1 2S4     -0.132000
     25 C25         6.5270    5.2520   -9.1940 c3        1 2S4     -0.090800
     26 H1          0.6100    0.9450   -1.9790 ha        1 2S4      0.140000
     27 H2         -1.6330    3.6320    0.2990 h1        1 2S4      0.072033
     28 H3         -1.9800    1.9150    0.8800 h1        1 2S4      0.072033
     29 H4         -0.8530    2.9980    1.8490 h1        1 2S4      0.072033
     30 H5         -0.6400    0.9090    4.4020 h1        1 2S4      0.072367
     31 H6          0.9540    0.0450    4.0730 h1        1 2S4      0.072367
     32 H7         -0.6380   -0.7320    3.5600 h1        1 2S4      0.072367
     33 H8          2.9200   -2.0750   -2.0080 hc        1 2S4      0.150200
     34 H9          1.4460   -1.5360   -2.9330 hc        1 2S4      0.150200
     35 H10         7.0340    6.0750   -6.6570 ha        1 2S4      0.173000
     36 H11         5.7070    5.5680   -4.6190 ha        1 2S4      0.140500
     37 H12         2.9640    3.1930   -7.0110 ha        1 2S4      0.140500
     38 H13         2.2970   -2.3270    0.3110 ha        1 2S4      0.165000
     39 H14         1.2500   -1.4250    2.3600 ha        1 2S4      0.182000
     40 H15         4.6180    0.9480   -2.0080 hn        1 2S4      0.486300
     41 H16         1.7210    2.9140   -1.2940 hn        1 2S4      0.540400
     42 H17         3.8390    2.0300   -4.5380 hn        1 2S4      0.475800
     43 H18         3.5330    4.9080   -3.7190 hx        1 2S4      0.123200
     44 H19         2.3420    3.9380   -4.7420 hx        1 2S4      0.123200
     45 H20         4.3000    3.7060   -9.0420 ha        1 2S4      0.173000
     46 H21         7.6060    5.4270   -8.9550 hc        1 2S4      0.080033
     47 H22         6.4580    4.4360   -9.9560 hc        1 2S4      0.080033
     48 H23         6.1160    6.1900   -9.6510 hc        1 2S4      0.080033
     49 H132        3.2240    0.9110   -1.0930 hn        1 2S4      0.486300
     50 H162        4.9160    2.9070   -3.5980 hn        1 2S4      0.475800
@<TRIPOS>BOND
     1    1    2 ar  
     2    1    3 ar  
     3    1   26 1   
     4    2    6 1   
     5    2   15 ar  
     6    3   17 ar  
     7    3   19 1   
     8    4   19 1   
     9    4   27 1   
    10    4   28 1   
    11    4   29 1   
    12    5   18 1   
    13    5   30 1   
    14    5   31 1   
    15    5   32 1   
    16    6    7 1   
    17    6   33 1   
    18    6   34 1   
    19    7   14 2   
    20    7   20 1   
    21    8   20 1   
    22    8   21 2   
    23    8   22 1   
    24    9   12 ar  
    25    9   13 ar  
    26    9   23 1   
    27   10   11 ar  
    28   10   12 ar  
    29   10   35 1   
    30   11   24 ar  
    31   11   25 1   
    32   12   36 1   
    33   13   24 ar  
    34   13   37 1   
    35   15   16 ar  
    36   15   38 1   
    37   16   17 ar  
    38   16   39 1   
    39   17   18 1   
    40   20   40 1   
    41   20   49 1   
    42   21   41 1   
    43   22   23 1   
    44   22   42 1   
    45   22   50 1   
    46   23   43 1   
    47   23   44 1   
    48   24   45 1   
    49   25   46 1   
    50   25   47 1   
    51   25   48 1   
@<TRIPOS>SUBSTRUCTURE
     1 2S4         1 TEMP              0 ****  ****    0 ROOT
