@<TRIPOS>MOLECULE
2S4
   50    51     1     0     0
SMALL
bcc


@<TRIPOS>ATOM
      1 C1          0.7800    0.3400   -0.9930 ca        1 2S4     -0.224000
      2 C2          1.7460   -0.6680   -0.8260 ca        1 2S4     -0.210300
      3 C3          0.2220    0.9740    0.1160 ca        1 2S4      0.107100
      4 C8         -1.6420    2.3850    0.6550 c3        1 2S4      0.123700
      5 C10         0.0620    0.5670    3.7670 c3        1 2S4      0.101700
      6 C11         2.4020   -1.2200   -2.0340 c3        1 2S4     -0.076100
      7 C12         2.9840   -0.1600   -2.9270 c         1 2S4      0.587100
      8 C14         2.6170    2.3540   -2.9390 c2        1 2S4      0.612100
      9 C19         4.8680    4.0640   -5.4610 ca        1 2S4     -0.247300
     10 C20         6.1930    3.8090   -7.4700 ca        1 2S4     -0.130000
     11 C21         5.7170    5.0410   -7.9520 ca        1 2S4      0.032700
     12 C22         5.7750    3.3240   -6.2380 ca        1 2S4     -0.074500
     13 C24         4.3860    5.2950   -5.9390 ca        1 2S4     -0.074500
     14 O15         3.2480   -0.1880   -4.1160 o         1 2S4     -0.434100
     15 C4          2.0440   -1.1350    0.4530 ca        1 2S4     -0.060000
     16 C6          1.4170   -0.5760    1.5690 ca        1 2S4     -0.173000
     17 C5          0.5230    0.4910    1.4250 ca        1 2S4      0.145100
     18 O9         -0.0920    1.1350    2.4590 os        1 2S4     -0.310900
     19 O7         -0.5000    2.1070   -0.1710 os        1 2S4     -0.371900
     20 N13         3.3150    1.2010   -2.2610 ny        1 2S4     -0.720800
     21 N17         1.6100    3.0080   -2.5100 n2        1 2S4     -0.625100
     22 N16         3.2080    2.7330   -4.2630 ny        1 2S4     -0.762000
     23 C18         4.4690    3.5870   -4.1240 c3        1 2S4      0.206100
     24 C23         4.8080    5.7750   -7.1710 ca        1 2S4     -0.130000
     25 C25         6.1830    5.5660   -9.2520 c3        1 2S4     -0.090800
     26 H1          0.4000    0.5900   -1.9950 ha        1 2S4      0.141000
     27 H2         -2.2300    3.1120    0.0380 h1        1 2S4      0.072033
     28 H3         -2.2250    1.4560    0.8530 h1        1 2S4      0.072033
     29 H4         -1.2970    2.8510    1.6110 h1        1 2S4      0.072033
     30 H5         -0.5890    1.2260    4.3990 h1        1 2S4      0.072367
     31 H6          1.1280    0.6320    4.0900 h1        1 2S4      0.072367
     32 H7         -0.3040   -0.4870    3.7810 h1        1 2S4      0.072367
     33 H8          3.2370   -1.9340   -1.7700 hc        1 2S4      0.151200
     34 H9          1.6580   -1.7950   -2.6680 hc        1 2S4      0.151200
     35 H10         6.9120    3.2300   -8.0750 ha        1 2S4      0.174000
     36 H11         6.1730    2.3670   -5.8670 ha        1 2S4      0.139000
     37 H12         3.6900    5.8940   -5.3300 ha        1 2S4      0.139000
     38 H13         2.7660   -1.9570    0.5970 ha        1 2S4      0.165000
     39 H14         1.6400   -0.9830    2.5700 ha        1 2S4      0.182000
     40 H15         4.3320    1.3440   -2.2760 hn        1 2S4      0.487800
     41 H16         1.1270    2.8200   -1.6440 hn        1 2S4      0.541400
     42 H17         2.5100    3.2900   -4.7950 hn        1 2S4      0.492800
     43 H18         5.2620    2.9370   -3.6590 hx        1 2S4      0.103700
     44 H19         4.2120    4.4420   -3.4340 hx        1 2S4      0.103700
     45 H20         4.4350    6.7460   -7.5410 ha        1 2S4      0.174000
     46 H21         6.4520    4.7360   -9.9530 hc        1 2S4      0.080700
     47 H22         5.3990    6.2020   -9.7360 hc        1 2S4      0.080700
     48 H23         7.0960    6.1990   -9.0960 hc        1 2S4      0.080700
     49 H132        3.0100    1.1620   -1.2700 hn        1 2S4      0.487800
     50 H162        3.4140    1.8870   -4.8220 hn        1 2S4      0.492800
@<TRIPOS>BOND
     1    1    2 ar  
     2    1    3 ar  
     3    1   26 1   
     4    2    6 1   
     5    2   15 ar  
     6    3   17 ar  
     7    3   19 1   
     8    4   19 1   
     9    4   27 1   
    10    4   28 1   
    11    4   29 1   
    12    5   18 1   
    13    5   30 1   
    14    5   31 1   
    15    5   32 1   
    16    6    7 1   
    17    6   33 1   
    18    6   34 1   
    19    7   14 2   
    20    7   20 1   
    21    8   20 1   
    22    8   21 2   
    23    8   22 1   
    24    9   12 ar  
    25    9   13 ar  
    26    9   23 1   
    27   10   11 ar  
    28   10   12 ar  
    29   10   35 1   
    30   11   24 ar  
    31   11   25 1   
    32   12   36 1   
    33   13   24 ar  
    34   13   37 1   
    35   15   16 ar  
    36   15   38 1   
    37   16   17 ar  
    38   16   39 1   
    39   17   18 1   
    40   20   40 1   
    41   20   49 1   
    42   21   41 1   
    43   22   23 1   
    44   22   42 1   
    45   22   50 1   
    46   23   43 1   
    47   23   44 1   
    48   24   45 1   
    49   25   46 1   
    50   25   47 1   
    51   25   48 1   
@<TRIPOS>SUBSTRUCTURE
     1 2S4         1 TEMP              0 ****  ****    0 ROOT
