@<TRIPOS>MOLECULE
2S6
   65    68     1     0     0
SMALL
bcc


@<TRIPOS>ATOM
      1 CAK         0.0860   -0.2150    0.1400 ca        1 2S6     -0.190000
      2 CAI         1.4670   -0.1110    0.0820 ca        1 2S6     -0.055500
      3 CAY         2.2080    0.1460    1.2480 ca        1 2S6     -0.060000
      4 CAC         3.6230    0.2510    1.1810 cg        1 2S6      0.238800
      5 NAA         4.7820    0.3370    1.1250 n1        1 2S6     -0.370800
      6 CAJ         1.5500    0.2990    2.4750 ca        1 2S6     -0.055500
      7 CAL         0.1630    0.1970    2.5470 ca        1 2S6     -0.190000
      8 CAZ        -0.5690   -0.0600    1.3800 ca        1 2S6      0.154100
      9 OAX        -1.9380   -0.1850    1.3240 os        1 2S6     -0.323900
     10 CAP        -2.6390   -0.0190    2.5650 c3        1 2S6      0.127400
     11 CAO        -4.1110   -0.1860    2.2260 c3        1 2S6     -0.088400
     12 CAU        -4.9230   -0.1560    3.5190 c3        1 2S6      0.174800
     13 NBD        -6.3590   -0.0370    3.3050 n3        1 2S6     -0.727600
     14 CAW        -6.9190   -1.1610    2.5670 c3        1 2S6      0.169300
     15 CAT        -8.4300   -1.0770    2.3770 c3        1 2S6     -0.078400
     16 CAV        -7.0610    0.2180    4.5570 c3        1 2S6      0.169300
     17 CAS        -8.5730    0.3510    4.3910 c3        1 2S6     -0.078400
     18 CBC        -9.1530   -0.8740    3.6990 c3        1 2S6     -0.086700
     19 CBE       -10.6820   -0.7780    3.4660 c3        1 2S6      0.216100
     20 CBB       -11.4170   -0.5010    4.7940 c3        1 2S6     -0.087700
     21 CAQ       -11.1900   -1.5390    5.8890 c3        1 2S6     -0.076400
     22 CAM       -12.4370   -1.5210    6.7640 c3        1 2S6     -0.077900
     23 CAN       -13.5400   -0.8350    5.9670 c3        1 2S6     -0.077900
     24 CAR       -12.9350   -0.3810    4.6450 c3        1 2S6     -0.076400
     25 OAB       -10.9550    0.3110    2.5720 oh        1 2S6     -0.598800
     26 CBA       -11.2040   -2.0170    2.7670 ca        1 2S6     -0.068300
     27 CAG       -10.7400   -3.2980    3.0920 ca        1 2S6     -0.115500
     28 CAE       -11.2500   -4.4230    2.4450 ca        1 2S6     -0.136000
     29 CAD       -12.2240   -4.2850    1.4580 ca        1 2S6     -0.127000
     30 CAF       -12.6840   -3.0140    1.1170 ca        1 2S6     -0.136000
     31 CAH       -12.1790   -1.8890    1.7670 ca        1 2S6     -0.115500
     32 H1         -0.5090   -0.4150   -0.7620 ha        1 2S6      0.150500
     33 H2          1.9860   -0.2300   -0.8820 ha        1 2S6      0.146500
     34 H3          2.1300    0.5010    3.3890 ha        1 2S6      0.146500
     35 H4         -0.3380    0.3190    3.5170 ha        1 2S6      0.150500
     36 H5         -2.4300    1.0020    2.9790 h1        1 2S6      0.042200
     37 H6         -2.2980   -0.8020    3.2920 h1        1 2S6      0.042200
     38 H7         -4.4310    0.6350    1.5330 hc        1 2S6      0.067700
     39 H8         -4.2590   -1.1580    1.6880 hc        1 2S6      0.067700
     40 H9         -4.6010    0.7420    4.1210 h1        1 2S6      0.029200
     41 H10        -4.6660   -1.0770    4.1220 h1        1 2S6      0.029200
     42 H12        -6.6740   -2.1440    3.0700 h1        1 2S6      0.030450
     43 H13        -6.4350   -1.1690    1.5500 h1        1 2S6      0.030450
     44 H14        -8.7770   -2.0280    1.8950 hc        1 2S6      0.055700
     45 H15        -8.6870   -0.2300    1.6870 hc        1 2S6      0.055700
     46 H16        -6.6630    1.1840    4.9780 h1        1 2S6      0.030450
     47 H17        -6.8560   -0.5950    5.3170 h1        1 2S6      0.030450
     48 H18        -9.0150    0.4710    5.4140 hc        1 2S6      0.055700
     49 H19        -8.8030    1.2750    3.7990 hc        1 2S6      0.055700
     50 H20        -8.9670   -1.7600    4.3670 hc        1 2S6      0.053700
     51 H21       -11.0400    0.4930    5.1690 hc        1 2S6      0.042700
     52 H22       -10.2730   -1.2980    6.4810 hc        1 2S6      0.047700
     53 H23       -11.0510   -2.5560    5.4440 hc        1 2S6      0.047700
     54 H24       -12.2390   -0.9630    7.7130 hc        1 2S6      0.040950
     55 H25       -12.7350   -2.5620    7.0450 hc        1 2S6      0.040950
     56 H26       -14.3930   -1.5360    5.7850 hc        1 2S6      0.040950
     57 H27       -13.9450    0.0400    6.5340 hc        1 2S6      0.040950
     58 H28       -13.2210    0.6720    4.4040 hc        1 2S6      0.047700
     59 H29       -13.2980   -1.0270    3.8060 hc        1 2S6      0.047700
     60 H30       -10.6880    1.1190    3.0240 ho        1 2S6      0.403000
     61 H31        -9.9600   -3.4370    3.8570 ha        1 2S6      0.141500
     62 H32       -10.8780   -5.4220    2.7160 ha        1 2S6      0.131000
     63 H33       -12.6240   -5.1740    0.9480 ha        1 2S6      0.131000
     64 H34       -13.4460   -2.8950    0.3340 ha        1 2S6      0.131000
     65 H35       -12.5410   -0.8860    1.4870 ha        1 2S6      0.141500
@<TRIPOS>BOND
     1    1    2 ar  
     2    1    8 ar  
     3    1   32 1   
     4    2    3 ar  
     5    2   33 1   
     6    3    4 1   
     7    3    6 ar  
     8    4    5 3   
     9    6    7 ar  
    10    6   34 1   
    11    7    8 ar  
    12    7   35 1   
    13    8    9 1   
    14    9   10 1   
    15   10   11 1   
    16   10   36 1   
    17   10   37 1   
    18   11   12 1   
    19   11   38 1   
    20   11   39 1   
    21   12   13 1   
    22   12   40 1   
    23   12   41 1   
    24   13   14 1   
    25   13   16 1   
    26   14   15 1   
    27   14   42 1   
    28   14   43 1   
    29   15   18 1   
    30   15   44 1   
    31   15   45 1   
    32   16   17 1   
    33   16   46 1   
    34   16   47 1   
    35   17   18 1   
    36   17   48 1   
    37   17   49 1   
    38   18   19 1   
    39   18   50 1   
    40   19   20 1   
    41   19   25 1   
    42   19   26 1   
    43   20   21 1   
    44   20   24 1   
    45   20   51 1   
    46   21   22 1   
    47   21   52 1   
    48   21   53 1   
    49   22   23 1   
    50   22   54 1   
    51   22   55 1   
    52   23   24 1   
    53   23   56 1   
    54   23   57 1   
    55   24   58 1   
    56   24   59 1   
    57   25   60 1   
    58   26   27 ar  
    59   26   31 ar  
    60   27   28 ar  
    61   27   61 1   
    62   28   29 ar  
    63   28   62 1   
    64   29   30 ar  
    65   29   63 1   
    66   30   31 ar  
    67   30   64 1   
    68   31   65 1   
@<TRIPOS>SUBSTRUCTURE
     1 2S6         1 TEMP              0 ****  ****    0 ROOT
