@<TRIPOS>MOLECULE
2S6
   65    68     1     0     0
SMALL
bcc


@<TRIPOS>ATOM
      1 CAK         0.0840   -0.2140    0.1390 ca        1 2S6     -0.190000
      2 CAI         1.4660   -0.1120    0.0800 ca        1 2S6     -0.055500
      3 CAY         2.2080    0.1450    1.2460 ca        1 2S6     -0.060000
      4 CAC         3.6220    0.2490    1.1790 cg        1 2S6      0.238800
      5 NAA         4.7810    0.3330    1.1230 n1        1 2S6     -0.370800
      6 CAJ         1.5500    0.2980    2.4730 ca        1 2S6     -0.055500
      7 CAL         0.1620    0.1980    2.5450 ca        1 2S6     -0.190000
      8 CAZ        -0.5700   -0.0590    1.3780 ca        1 2S6      0.154100
      9 OAX        -1.9400   -0.1820    1.3220 os        1 2S6     -0.323900
     10 CAP        -2.6400   -0.0170    2.5640 c3        1 2S6      0.127400
     11 CAO        -4.1120   -0.1820    2.2250 c3        1 2S6     -0.088400
     12 CAU        -4.9240   -0.1540    3.5180 c3        1 2S6      0.174800
     13 NBD        -6.3600   -0.0340    3.3060 n3        1 2S6     -0.727600
     14 CAW        -6.9190   -1.1570    2.5660 c3        1 2S6      0.169300
     15 CAT        -8.4300   -1.0730    2.3760 c3        1 2S6     -0.078400
     16 CAV        -7.0600    0.2180    4.5590 c3        1 2S6      0.169300
     17 CAS        -8.5730    0.3510    4.3930 c3        1 2S6     -0.078400
     18 CBC        -9.1530   -0.8730    3.7000 c3        1 2S6     -0.086700
     19 CBE       -10.6820   -0.7770    3.4680 c3        1 2S6      0.216100
     20 CBB       -11.4170   -0.5030    4.7970 c3        1 2S6     -0.087700
     21 CAQ       -11.1880   -1.5430    5.8900 c3        1 2S6     -0.076400
     22 CAM       -12.4350   -1.5270    6.7660 c3        1 2S6     -0.077900
     23 CAN       -13.5390   -0.8410    5.9710 c3        1 2S6     -0.077900
     24 CAR       -12.9340   -0.3830    4.6490 c3        1 2S6     -0.076400
     25 OAB       -10.9560    0.3130    2.5760 oh        1 2S6     -0.598800
     26 CBA       -11.2040   -2.0150    2.7680 ca        1 2S6     -0.068300
     27 CAG       -10.7390   -3.2960    3.0900 ca        1 2S6     -0.115500
     28 CAE       -11.2500   -4.4200    2.4410 ca        1 2S6     -0.136000
     29 CAD       -12.2240   -4.2820    1.4540 ca        1 2S6     -0.127000
     30 CAF       -12.6840   -3.0100    1.1170 ca        1 2S6     -0.136000
     31 CAH       -12.1800   -1.8850    1.7680 ca        1 2S6     -0.115500
     32 H1         -0.5110   -0.4140   -0.7640 ha        1 2S6      0.150500
     33 H2          1.9850   -0.2320   -0.8840 ha        1 2S6      0.146500
     34 H3          2.1300    0.5000    3.3870 ha        1 2S6      0.146500
     35 H4         -0.3380    0.3200    3.5150 ha        1 2S6      0.150500
     36 H5         -2.4300    1.0040    2.9780 h1        1 2S6      0.042200
     37 H6         -2.2990   -0.7990    3.2910 h1        1 2S6      0.042200
     38 H7         -4.2600   -1.1540    1.6860 hc        1 2S6      0.067700
     39 H8         -4.4320    0.6390    1.5340 hc        1 2S6      0.067700
     40 H9         -4.6660   -1.0760    4.1200 h1        1 2S6      0.029200
     41 H10        -4.6010    0.7430    4.1220 h1        1 2S6      0.029200
     42 H12        -6.6740   -2.1410    3.0670 h1        1 2S6      0.030450
     43 H13        -6.4360   -1.1630    1.5480 h1        1 2S6      0.030450
     44 H14        -8.7780   -2.0240    1.8930 hc        1 2S6      0.055700
     45 H15        -8.6890   -0.2260    1.6880 hc        1 2S6      0.055700
     46 H16        -6.8560   -0.5960    5.3170 h1        1 2S6      0.030450
     47 H17        -6.6630    1.1840    4.9810 h1        1 2S6      0.030450
     48 H18        -8.8030    1.2750    3.8030 hc        1 2S6      0.055700
     49 H19        -9.0140    0.4690    5.4170 hc        1 2S6      0.055700
     50 H20        -8.9660   -1.7600    4.3660 hc        1 2S6      0.053700
     51 H21       -11.0400    0.4910    5.1740 hc        1 2S6      0.042700
     52 H22       -11.0490   -2.5590    5.4430 hc        1 2S6      0.047700
     53 H23       -10.2710   -1.3020    6.4820 hc        1 2S6      0.047700
     54 H24       -12.7310   -2.5680    7.0450 hc        1 2S6      0.040950
     55 H25       -12.2360   -0.9710    7.7160 hc        1 2S6      0.040950
     56 H26       -13.9430    0.0330    6.5400 hc        1 2S6      0.040950
     57 H27       -14.3910   -1.5410    5.7880 hc        1 2S6      0.040950
     58 H28       -13.2980   -1.0280    3.8090 hc        1 2S6      0.047700
     59 H29       -13.2210    0.6700    4.4100 hc        1 2S6      0.047700
     60 H30       -10.6900    1.1210    3.0300 ho        1 2S6      0.403000
     61 H31        -9.9590   -3.4370    3.8530 ha        1 2S6      0.141500
     62 H32       -10.8770   -5.4200    2.7100 ha        1 2S6      0.131000
     63 H33       -12.6240   -5.1690    0.9430 ha        1 2S6      0.131000
     64 H34       -13.4480   -2.8900    0.3340 ha        1 2S6      0.131000
     65 H35       -12.5430   -0.8820    1.4900 ha        1 2S6      0.141500
@<TRIPOS>BOND
     1    1    2 ar  
     2    1    8 ar  
     3    1   32 1   
     4    2    3 ar  
     5    2   33 1   
     6    3    4 1   
     7    3    6 ar  
     8    4    5 3   
     9    6    7 ar  
    10    6   34 1   
    11    7    8 ar  
    12    7   35 1   
    13    8    9 1   
    14    9   10 1   
    15   10   11 1   
    16   10   36 1   
    17   10   37 1   
    18   11   12 1   
    19   11   38 1   
    20   11   39 1   
    21   12   13 1   
    22   12   40 1   
    23   12   41 1   
    24   13   14 1   
    25   13   16 1   
    26   14   15 1   
    27   14   42 1   
    28   14   43 1   
    29   15   18 1   
    30   15   44 1   
    31   15   45 1   
    32   16   17 1   
    33   16   46 1   
    34   16   47 1   
    35   17   18 1   
    36   17   48 1   
    37   17   49 1   
    38   18   19 1   
    39   18   50 1   
    40   19   20 1   
    41   19   25 1   
    42   19   26 1   
    43   20   21 1   
    44   20   24 1   
    45   20   51 1   
    46   21   22 1   
    47   21   52 1   
    48   21   53 1   
    49   22   23 1   
    50   22   54 1   
    51   22   55 1   
    52   23   24 1   
    53   23   56 1   
    54   23   57 1   
    55   24   58 1   
    56   24   59 1   
    57   25   60 1   
    58   26   27 ar  
    59   26   31 ar  
    60   27   28 ar  
    61   27   61 1   
    62   28   29 ar  
    63   28   62 1   
    64   29   30 ar  
    65   29   63 1   
    66   30   31 ar  
    67   30   64 1   
    68   31   65 1   
@<TRIPOS>SUBSTRUCTURE
     1 2S6         1 TEMP              0 ****  ****    0 ROOT
