@<TRIPOS>MOLECULE
2S6
   65    68     1     0     0
SMALL
bcc


@<TRIPOS>ATOM
      1 CAK         0.0850   -0.2040    0.1380 ca        1 2S6     -0.190000
      2 CAI         1.4670   -0.1000    0.0790 ca        1 2S6     -0.055500
      3 CAY         2.2080    0.1500    1.2470 ca        1 2S6     -0.060000
      4 CAC         3.6230    0.2550    1.1790 cg        1 2S6      0.238800
      5 NAA         4.7820    0.3410    1.1240 n1        1 2S6     -0.370800
      6 CAJ         1.5510    0.2960    2.4740 ca        1 2S6     -0.055500
      7 CAL         0.1630    0.1930    2.5460 ca        1 2S6     -0.190000
      8 CAZ        -0.5690   -0.0570    1.3780 ca        1 2S6      0.154100
      9 OAX        -1.9380   -0.1810    1.3220 os        1 2S6     -0.323900
     10 CAP        -2.6390   -0.0210    2.5640 c3        1 2S6      0.127400
     11 CAO        -4.1110   -0.1850    2.2250 c3        1 2S6     -0.088400
     12 CAU        -4.9230   -0.1590    3.5180 c3        1 2S6      0.174800
     13 NBD        -6.3590   -0.0390    3.3050 n3        1 2S6     -0.727600
     14 CAW        -6.9190   -1.1620    2.5660 c3        1 2S6      0.169300
     15 CAT        -8.4300   -1.0770    2.3760 c3        1 2S6     -0.078400
     16 CAV        -7.0590    0.2140    4.5580 c3        1 2S6      0.169300
     17 CAS        -8.5720    0.3490    4.3910 c3        1 2S6     -0.078400
     18 CBC        -9.1530   -0.8750    3.6990 c3        1 2S6     -0.086700
     19 CBE       -10.6820   -0.7780    3.4660 c3        1 2S6      0.216100
     20 CBB       -11.4160   -0.5020    4.7950 c3        1 2S6     -0.087700
     21 CAQ       -11.1890   -1.5400    5.8890 c3        1 2S6     -0.076400
     22 CAM       -12.4360   -1.5230    6.7640 c3        1 2S6     -0.077900
     23 CAN       -13.5390   -0.8360    5.9680 c3        1 2S6     -0.077900
     24 CAR       -12.9340   -0.3810    4.6460 c3        1 2S6     -0.076400
     25 OAB       -10.9540    0.3120    2.5730 oh        1 2S6     -0.598800
     26 CBA       -11.2050   -2.0160    2.7670 ca        1 2S6     -0.068300
     27 CAG       -10.7410   -3.2970    3.0910 ca        1 2S6     -0.115500
     28 CAE       -11.2520   -4.4210    2.4430 ca        1 2S6     -0.136000
     29 CAD       -12.2260   -4.2830    1.4560 ca        1 2S6     -0.127000
     30 CAF       -12.6850   -3.0110    1.1170 ca        1 2S6     -0.136000
     31 CAH       -12.1800   -1.8870    1.7670 ca        1 2S6     -0.115500
     32 H1         -0.5100   -0.4000   -0.7660 ha        1 2S6      0.150500
     33 H2          1.9850   -0.2140   -0.8850 ha        1 2S6      0.146500
     34 H3          2.1310    0.4920    3.3890 ha        1 2S6      0.146500
     35 H4         -0.3370    0.3100    3.5180 ha        1 2S6      0.150500
     36 H5         -2.4290    0.9970    2.9840 h1        1 2S6      0.042200
     37 H6         -2.2980   -0.8080    3.2880 h1        1 2S6      0.042200
     38 H7         -4.4300    0.6380    1.5350 hc        1 2S6      0.067700
     39 H8         -4.2590   -1.1560    1.6840 hc        1 2S6      0.067700
     40 H9         -4.6650   -1.0830    4.1180 h1        1 2S6      0.029200
     41 H10        -4.5990    0.7360    4.1230 h1        1 2S6      0.029200
     42 H12        -6.6740   -2.1460    3.0680 h1        1 2S6      0.030450
     43 H13        -6.4350   -1.1690    1.5480 h1        1 2S6      0.030450
     44 H14        -8.7780   -2.0270    1.8940 hc        1 2S6      0.055700
     45 H15        -8.6870   -0.2300    1.6870 hc        1 2S6      0.055700
     46 H16        -6.8560   -0.5990    5.3170 h1        1 2S6      0.030450
     47 H17        -6.6610    1.1800    4.9790 h1        1 2S6      0.030450
     48 H18        -8.8010    1.2730    3.8000 hc        1 2S6      0.055700
     49 H19        -9.0130    0.4680    5.4150 hc        1 2S6      0.055700
     50 H20        -8.9670   -1.7620    4.3660 hc        1 2S6      0.053700
     51 H21       -11.0390    0.4920    5.1710 hc        1 2S6      0.042700
     52 H22       -10.2720   -1.3000    6.4810 hc        1 2S6      0.047700
     53 H23       -11.0510   -2.5580    5.4430 hc        1 2S6      0.047700
     54 H24       -12.7340   -2.5630    7.0450 hc        1 2S6      0.040950
     55 H25       -12.2370   -0.9650    7.7140 hc        1 2S6      0.040950
     56 H26       -14.3920   -1.5360    5.7860 hc        1 2S6      0.040950
     57 H27       -13.9430    0.0390    6.5360 hc        1 2S6      0.040950
     58 H28       -13.2200    0.6720    4.4060 hc        1 2S6      0.047700
     59 H29       -13.2980   -1.0260    3.8070 hc        1 2S6      0.047700
     60 H30       -10.6870    1.1200    3.0260 ho        1 2S6      0.403000
     61 H31        -9.9620   -3.4380    3.8540 ha        1 2S6      0.141500
     62 H32       -10.8810   -5.4210    2.7130 ha        1 2S6      0.131000
     63 H33       -12.6270   -5.1710    0.9460 ha        1 2S6      0.131000
     64 H34       -13.4480   -2.8910    0.3330 ha        1 2S6      0.131000
     65 H35       -12.5410   -0.8830    1.4870 ha        1 2S6      0.141500
@<TRIPOS>BOND
     1    1    2 ar  
     2    1    8 ar  
     3    1   32 1   
     4    2    3 ar  
     5    2   33 1   
     6    3    4 1   
     7    3    6 ar  
     8    4    5 3   
     9    6    7 ar  
    10    6   34 1   
    11    7    8 ar  
    12    7   35 1   
    13    8    9 1   
    14    9   10 1   
    15   10   11 1   
    16   10   36 1   
    17   10   37 1   
    18   11   12 1   
    19   11   38 1   
    20   11   39 1   
    21   12   13 1   
    22   12   40 1   
    23   12   41 1   
    24   13   14 1   
    25   13   16 1   
    26   14   15 1   
    27   14   42 1   
    28   14   43 1   
    29   15   18 1   
    30   15   44 1   
    31   15   45 1   
    32   16   17 1   
    33   16   46 1   
    34   16   47 1   
    35   17   18 1   
    36   17   48 1   
    37   17   49 1   
    38   18   19 1   
    39   18   50 1   
    40   19   20 1   
    41   19   25 1   
    42   19   26 1   
    43   20   21 1   
    44   20   24 1   
    45   20   51 1   
    46   21   22 1   
    47   21   52 1   
    48   21   53 1   
    49   22   23 1   
    50   22   54 1   
    51   22   55 1   
    52   23   24 1   
    53   23   56 1   
    54   23   57 1   
    55   24   58 1   
    56   24   59 1   
    57   25   60 1   
    58   26   27 ar  
    59   26   31 ar  
    60   27   28 ar  
    61   27   61 1   
    62   28   29 ar  
    63   28   62 1   
    64   29   30 ar  
    65   29   63 1   
    66   30   31 ar  
    67   30   64 1   
    68   31   65 1   
@<TRIPOS>SUBSTRUCTURE
     1 2S6         1 TEMP              0 ****  ****    0 ROOT
