@<TRIPOS>MOLECULE
2S7
   64    67     1     0     0
SMALL
bcc


@<TRIPOS>ATOM
      1 CAJ         0.2090   -0.6980    0.2530 ca        1 2S7     -0.190000
      2 CAH         1.5940   -0.6440    0.2170 ca        1 2S7     -0.055500
      3 CAY         2.3170   -0.2180    1.3450 ca        1 2S7     -0.060000
      4 CAC         3.7350   -0.1660    1.3000 cg        1 2S7      0.239800
      5 NAA         4.8970   -0.1230    1.2640 n1        1 2S7     -0.371800
      6 CAI         1.6360    0.1540    2.5100 ca        1 2S7     -0.055500
      7 CAK         0.2450    0.1040    2.5600 ca        1 2S7     -0.190000
      8 CAZ        -0.4680   -0.3220    1.4310 ca        1 2S7      0.155100
      9 OAX        -1.8390   -0.4150    1.3580 os        1 2S7     -0.324900
     10 CAO        -2.5630   -0.0280    2.5360 c3        1 2S7      0.127400
     11 CAN        -4.0310   -0.2070    2.1890 c3        1 2S7     -0.088400
     12 CAT        -4.8710    0.0610    3.4360 c3        1 2S7      0.174800
     13 NBD        -6.2970    0.1820    3.1670 n3        1 2S7     -0.728600
     14 CAV        -7.0160    0.6670    4.3390 c3        1 2S7      0.169300
     15 CAS        -8.5220    0.7970    4.1160 c3        1 2S7     -0.074900
     16 CAU        -6.8720   -1.0350    2.6090 c3        1 2S7      0.169300
     17 CAR        -8.3790   -0.9560    2.3810 c3        1 2S7     -0.074900
     18 CBC        -9.0980   -0.5280    3.6510 c3        1 2S7     -0.049700
     19 CBE       -10.6330   -0.5050    3.4610 c3        1 2S7      0.121500
     20 CBB       -11.3490   -0.3830    4.8200 c3        1 2S7     -0.085700
     21 CAP       -12.8690   -0.2440    4.6910 c3        1 2S7     -0.080400
     22 CAL       -13.5140   -1.2460    5.6390 c3        1 2S7     -0.080900
     23 CAM       -12.3980   -1.8810    6.4550 c3        1 2S7     -0.080900
     24 CAQ       -11.0980   -1.5970    5.7180 c3        1 2S7     -0.080400
     25 OAB       -10.9420   -1.7630    2.8530 oh        1 2S7     -0.601800
     26 CBA       -11.0570    0.6100    2.5020 ca        1 2S7      0.377600
     27 NAW       -11.3430    1.8410    2.9910 nb        1 2S7     -0.665000
     28 CAF       -11.7010    2.7950    2.1120 ca        1 2S7      0.392200
     29 CAD       -11.7980    2.5880    0.7250 ca        1 2S7     -0.244300
     30 CAE       -11.5030    1.3180    0.2290 ca        1 2S7     -0.096000
     31 CAG       -11.1270    0.3140    1.1210 ca        1 2S7     -0.231300
     32 H1         -0.3710   -1.0280   -0.6210 ha        1 2S7      0.150500
     33 H2          2.1310   -0.9360   -0.7000 ha        1 2S7      0.146000
     34 H3          2.2010    0.4880    3.3940 ha        1 2S7      0.146000
     35 H4         -0.2740    0.4000    3.4820 ha        1 2S7      0.150500
     36 H5         -2.2630   -0.6890    3.3910 h1        1 2S7      0.042200
     37 H6         -2.3300    1.0410    2.7830 h1        1 2S7      0.042200
     38 H7         -4.1980   -1.2510    1.8160 hc        1 2S7      0.066700
     39 H8         -4.3080    0.4960    1.3610 hc        1 2S7      0.066700
     40 H9         -4.6550   -0.7530    4.1910 h1        1 2S7      0.029200
     41 H10        -4.5340    1.0380    3.8890 h1        1 2S7      0.029200
     42 H12        -6.8420   -0.0000    5.2350 h1        1 2S7      0.029700
     43 H13        -6.6040    1.6860    4.5890 h1        1 2S7      0.029700
     44 H14        -8.7160    1.5930    3.3520 hc        1 2S7      0.058200
     45 H15        -8.9920    1.1210    5.0790 hc        1 2S7      0.058200
     46 H16        -6.3730   -1.2150    1.6150 h1        1 2S7      0.029700
     47 H17        -6.6560   -1.9300    3.2660 h1        1 2S7      0.029700
     48 H18        -8.6070   -0.2290    1.5590 hc        1 2S7      0.058200
     49 H19        -8.7430   -1.9660    2.0570 hc        1 2S7      0.058200
     50 H20        -8.8950   -1.3050    4.4440 hc        1 2S7      0.058700
     51 H21       -10.9500    0.5360    5.3300 hc        1 2S7      0.075700
     52 H22       -13.1770    0.7990    4.9550 hc        1 2S7      0.047950
     53 H23       -13.2070   -0.4250    3.6390 hc        1 2S7      0.047950
     54 H24       -14.2580   -0.7440    6.3050 hc        1 2S7      0.040950
     55 H25       -14.0640   -2.0300    5.0590 hc        1 2S7      0.040950
     56 H26       -12.5590   -2.9800    6.5750 hc        1 2S7      0.040950
     57 H27       -12.3660   -1.4330    7.4810 hc        1 2S7      0.040950
     58 H28       -10.2650   -1.3920    6.4350 hc        1 2S7      0.047950
     59 H29       -10.8030   -2.4840    5.1000 hc        1 2S7      0.047950
     60 H30       -11.8960   -1.8870    2.9230 ho        1 2S7      0.408000
     61 H31       -11.9230    3.7840    2.5530 h4        1 2S7      0.021100
     62 H32       -12.0970    3.4070    0.0580 ha        1 2S7      0.144000
     63 H33       -11.5630    1.1090   -0.8490 ha        1 2S7      0.139000
     64 H34       -10.8800   -0.6990    0.7700 ha        1 2S7      0.160000
@<TRIPOS>BOND
     1    1    2 ar  
     2    1    8 ar  
     3    1   32 1   
     4    2    3 ar  
     5    2   33 1   
     6    3    4 1   
     7    3    6 ar  
     8    4    5 3   
     9    6    7 ar  
    10    6   34 1   
    11    7    8 ar  
    12    7   35 1   
    13    8    9 1   
    14    9   10 1   
    15   10   11 1   
    16   10   36 1   
    17   10   37 1   
    18   11   12 1   
    19   11   38 1   
    20   11   39 1   
    21   12   13 1   
    22   12   40 1   
    23   12   41 1   
    24   13   14 1   
    25   13   16 1   
    26   14   15 1   
    27   14   42 1   
    28   14   43 1   
    29   15   18 1   
    30   15   44 1   
    31   15   45 1   
    32   16   17 1   
    33   16   46 1   
    34   16   47 1   
    35   17   18 1   
    36   17   48 1   
    37   17   49 1   
    38   18   19 1   
    39   18   50 1   
    40   19   20 1   
    41   19   25 1   
    42   19   26 1   
    43   20   21 1   
    44   20   24 1   
    45   20   51 1   
    46   21   22 1   
    47   21   52 1   
    48   21   53 1   
    49   22   23 1   
    50   22   54 1   
    51   22   55 1   
    52   23   24 1   
    53   23   56 1   
    54   23   57 1   
    55   24   58 1   
    56   24   59 1   
    57   25   60 1   
    58   26   27 ar  
    59   26   31 ar  
    60   27   28 ar  
    61   28   29 ar  
    62   28   61 1   
    63   29   30 ar  
    64   29   62 1   
    65   30   31 ar  
    66   30   63 1   
    67   31   64 1   
@<TRIPOS>SUBSTRUCTURE
     1 2S7         1 TEMP              0 ****  ****    0 ROOT
