@<TRIPOS>MOLECULE
2S7
   64    67     1     0     0
SMALL
bcc


@<TRIPOS>ATOM
      1 CAJ         0.2100   -0.7070    0.2580 ca        1 2S7     -0.190000
      2 CAH         1.5950   -0.6510    0.2220 ca        1 2S7     -0.055500
      3 CAY         2.3170   -0.2160    1.3460 ca        1 2S7     -0.060000
      4 CAC         3.7350   -0.1620    1.3020 cg        1 2S7      0.239800
      5 NAA         4.8970   -0.1180    1.2650 n1        1 2S7     -0.371800
      6 CAI         1.6350    0.1640    2.5090 ca        1 2S7     -0.055500
      7 CAK         0.2440    0.1130    2.5580 ca        1 2S7     -0.190000
      8 CAZ        -0.4680   -0.3220    1.4330 ca        1 2S7      0.155100
      9 OAX        -1.8390   -0.4170    1.3610 os        1 2S7     -0.324900
     10 CAO        -2.5630   -0.0230    2.5350 c3        1 2S7      0.127400
     11 CAN        -4.0310   -0.2070    2.1890 c3        1 2S7     -0.088400
     12 CAT        -4.8710    0.0690    3.4350 c3        1 2S7      0.174800
     13 NBD        -6.2980    0.1850    3.1640 n3        1 2S7     -0.728600
     14 CAV        -7.0180    0.6760    4.3340 c3        1 2S7      0.169300
     15 CAS        -8.5240    0.8020    4.1100 c3        1 2S7     -0.074900
     16 CAU        -6.8700   -1.0360    2.6140 c3        1 2S7      0.169300
     17 CAR        -8.3780   -0.9620    2.3850 c3        1 2S7     -0.074900
     18 CBC        -9.0980   -0.5280    3.6530 c3        1 2S7     -0.049700
     19 CBE       -10.6320   -0.5080    3.4620 c3        1 2S7      0.121500
     20 CBB       -11.3490   -0.3800    4.8210 c3        1 2S7     -0.085700
     21 CAP       -12.8690   -0.2450    4.6920 c3        1 2S7     -0.080400
     22 CAL       -13.5120   -1.2430    5.6450 c3        1 2S7     -0.080900
     23 CAM       -12.3950   -1.8720    6.4640 c3        1 2S7     -0.080900
     24 CAQ       -11.0950   -1.5890    5.7250 c3        1 2S7     -0.080400
     25 OAB       -10.9390   -1.7700    2.8610 oh        1 2S7     -0.601800
     26 CBA       -11.0580    0.6010    2.4980 ca        1 2S7      0.377600
     27 NAW       -11.3470    1.8350    2.9800 nb        1 2S7     -0.665000
     28 CAF       -11.7060    2.7830    2.0970 ca        1 2S7      0.392200
     29 CAD       -11.8030    2.5680    0.7110 ca        1 2S7     -0.244300
     30 CAE       -11.5060    1.2960    0.2210 ca        1 2S7     -0.096000
     31 CAG       -11.1280    0.2980    1.1190 ca        1 2S7     -0.231300
     32 H1         -0.3700   -1.0450   -0.6130 ha        1 2S7      0.150500
     33 H2          2.1320   -0.9500   -0.6920 ha        1 2S7      0.146000
     34 H3          2.2000    0.5060    3.3900 ha        1 2S7      0.146000
     35 H4         -0.2750    0.4150    3.4780 ha        1 2S7      0.150500
     36 H5         -2.3320    1.0480    2.7750 h1        1 2S7      0.042200
     37 H6         -2.2620   -0.6770    3.3950 h1        1 2S7      0.042200
     38 H7         -4.3090    0.4900    1.3570 hc        1 2S7      0.066700
     39 H8         -4.1960   -1.2530    1.8240 hc        1 2S7      0.066700
     40 H9         -4.5360    1.0490    3.8810 h1        1 2S7      0.029200
     41 H10        -4.6540   -0.7400    4.1950 h1        1 2S7      0.029200
     42 H12        -6.8420    0.0140    5.2340 h1        1 2S7      0.029700
     43 H13        -6.6080    1.6970    4.5780 h1        1 2S7      0.029700
     44 H14        -8.9940    1.1300    5.0720 hc        1 2S7      0.058200
     45 H15        -8.7190    1.5930    3.3410 hc        1 2S7      0.058200
     46 H16        -6.6530   -1.9270    3.2760 h1        1 2S7      0.029700
     47 H17        -6.3710   -1.2210    1.6210 h1        1 2S7      0.029700
     48 H18        -8.6070   -0.2400    1.5590 hc        1 2S7      0.058200
     49 H19        -8.7400   -1.9740    2.0670 hc        1 2S7      0.058200
     50 H20        -8.8930   -1.3000    4.4510 hc        1 2S7      0.058700
     51 H21       -10.9520    0.5420    5.3270 hc        1 2S7      0.075700
     52 H22       -13.2060   -0.4320    3.6410 hc        1 2S7      0.047950
     53 H23       -13.1780    0.7990    4.9500 hc        1 2S7      0.047950
     54 H24       -14.2570   -0.7390    6.3080 hc        1 2S7      0.040950
     55 H25       -14.0600   -2.0310    5.0690 hc        1 2S7      0.040950
     56 H26       -12.3640   -1.4190    7.4870 hc        1 2S7      0.040950
     57 H27       -12.5540   -2.9710    6.5890 hc        1 2S7      0.040950
     58 H28       -10.7990   -2.4790    5.1120 hc        1 2S7      0.047950
     59 H29       -10.2630   -1.3790    6.4410 hc        1 2S7      0.047950
     60 H30       -11.8930   -1.8950    2.9320 ho        1 2S7      0.408000
     61 H31       -11.9300    3.7730    2.5330 h4        1 2S7      0.021100
     62 H32       -12.1040    3.3830    0.0400 ha        1 2S7      0.144000
     63 H33       -11.5650    1.0820   -0.8560 ha        1 2S7      0.139000
     64 H34       -10.8790   -0.7160    0.7730 ha        1 2S7      0.160000
@<TRIPOS>BOND
     1    1    2 ar  
     2    1    8 ar  
     3    1   32 1   
     4    2    3 ar  
     5    2   33 1   
     6    3    4 1   
     7    3    6 ar  
     8    4    5 3   
     9    6    7 ar  
    10    6   34 1   
    11    7    8 ar  
    12    7   35 1   
    13    8    9 1   
    14    9   10 1   
    15   10   11 1   
    16   10   36 1   
    17   10   37 1   
    18   11   12 1   
    19   11   38 1   
    20   11   39 1   
    21   12   13 1   
    22   12   40 1   
    23   12   41 1   
    24   13   14 1   
    25   13   16 1   
    26   14   15 1   
    27   14   42 1   
    28   14   43 1   
    29   15   18 1   
    30   15   44 1   
    31   15   45 1   
    32   16   17 1   
    33   16   46 1   
    34   16   47 1   
    35   17   18 1   
    36   17   48 1   
    37   17   49 1   
    38   18   19 1   
    39   18   50 1   
    40   19   20 1   
    41   19   25 1   
    42   19   26 1   
    43   20   21 1   
    44   20   24 1   
    45   20   51 1   
    46   21   22 1   
    47   21   52 1   
    48   21   53 1   
    49   22   23 1   
    50   22   54 1   
    51   22   55 1   
    52   23   24 1   
    53   23   56 1   
    54   23   57 1   
    55   24   58 1   
    56   24   59 1   
    57   25   60 1   
    58   26   27 ar  
    59   26   31 ar  
    60   27   28 ar  
    61   28   29 ar  
    62   28   61 1   
    63   29   30 ar  
    64   29   62 1   
    65   30   31 ar  
    66   30   63 1   
    67   31   64 1   
@<TRIPOS>SUBSTRUCTURE
     1 2S7         1 TEMP              0 ****  ****    0 ROOT
