@<TRIPOS>MOLECULE
2S7
   64    67     1     0     0
SMALL
bcc


@<TRIPOS>ATOM
      1 CAJ         0.2110   -0.6970    0.2600 ca        1 2S7     -0.190000
      2 CAH         1.5970   -0.6400    0.2230 ca        1 2S7     -0.055500
      3 CAY         2.3180   -0.2110    1.3510 ca        1 2S7     -0.060000
      4 CAC         3.7360   -0.1550    1.3060 cg        1 2S7      0.239800
      5 NAA         4.8980   -0.1090    1.2700 n1        1 2S7     -0.371800
      6 CAI         1.6360    0.1610    2.5160 ca        1 2S7     -0.055500
      7 CAK         0.2450    0.1080    2.5660 ca        1 2S7     -0.190000
      8 CAZ        -0.4670   -0.3210    1.4380 ca        1 2S7      0.155100
      9 OAX        -1.8380   -0.4180    1.3650 os        1 2S7     -0.324900
     10 CAO        -2.5620   -0.0290    2.5410 c3        1 2S7      0.127400
     11 CAN        -4.0300   -0.2110    2.1940 c3        1 2S7     -0.088400
     12 CAT        -4.8710    0.0600    3.4400 c3        1 2S7      0.174800
     13 NBD        -6.2970    0.1790    3.1690 n3        1 2S7     -0.728600
     14 CAV        -7.0170    0.6670    4.3390 c3        1 2S7      0.169300
     15 CAS        -8.5230    0.7970    4.1140 c3        1 2S7     -0.074900
     16 CAU        -6.8710   -1.0390    2.6140 c3        1 2S7      0.169300
     17 CAR        -8.3780   -0.9610    2.3830 c3        1 2S7     -0.074900
     18 CBC        -9.0990   -0.5300    3.6520 c3        1 2S7     -0.049700
     19 CBE       -10.6330   -0.5060    3.4580 c3        1 2S7      0.121500
     20 CBB       -11.3520   -0.3800    4.8160 c3        1 2S7     -0.085700
     21 CAP       -12.8710   -0.2410    4.6850 c3        1 2S7     -0.080400
     22 CAL       -13.5180   -1.2400    5.6350 c3        1 2S7     -0.080900
     23 CAM       -12.4030   -1.8730    6.4550 c3        1 2S7     -0.080900
     24 CAQ       -11.1020   -1.5920    5.7180 c3        1 2S7     -0.080400
     25 OAB       -10.9420   -1.7660    2.8540 oh        1 2S7     -0.601800
     26 CBA       -11.0550    0.6050    2.4960 ca        1 2S7      0.377600
     27 NAW       -11.3420    1.8390    2.9800 nb        1 2S7     -0.665000
     28 CAF       -11.6980    2.7890    2.0990 ca        1 2S7      0.392200
     29 CAD       -11.7930    2.5780    0.7110 ca        1 2S7     -0.244300
     30 CAE       -11.4980    1.3070    0.2200 ca        1 2S7     -0.096000
     31 CAG       -11.1230    0.3060    1.1160 ca        1 2S7     -0.231300
     32 H1         -0.3680   -1.0300   -0.6130 ha        1 2S7      0.150500
     33 H2          2.1340   -0.9310   -0.6930 ha        1 2S7      0.146000
     34 H3          2.2000    0.4970    3.4000 ha        1 2S7      0.146000
     35 H4         -0.2740    0.4030    3.4880 ha        1 2S7      0.150500
     36 H5         -2.3310    1.0400    2.7870 h1        1 2S7      0.042200
     37 H6         -2.2620   -0.6890    3.3970 h1        1 2S7      0.042200
     38 H7         -4.1960   -1.2550    1.8230 hc        1 2S7      0.066700
     39 H8         -4.3080    0.4900    1.3640 hc        1 2S7      0.066700
     40 H9         -4.6560   -0.7530    4.1970 h1        1 2S7      0.029200
     41 H10        -4.5350    1.0380    3.8910 h1        1 2S7      0.029200
     42 H12        -6.6060    1.6860    4.5880 h1        1 2S7      0.029700
     43 H13        -6.8440    0.0020    5.2370 h1        1 2S7      0.029700
     44 H14        -8.9940    1.1230    5.0760 hc        1 2S7      0.058200
     45 H15        -8.7160    1.5910    3.3480 hc        1 2S7      0.058200
     46 H16        -6.3710   -1.2220    1.6200 h1        1 2S7      0.029700
     47 H17        -6.6560   -1.9320    3.2740 h1        1 2S7      0.029700
     48 H18        -8.7420   -1.9710    2.0620 hc        1 2S7      0.058200
     49 H19        -8.6050   -0.2360    1.5590 hc        1 2S7      0.058200
     50 H20        -8.8970   -1.3050    4.4470 hc        1 2S7      0.058700
     51 H21       -10.9530    0.5400    5.3240 hc        1 2S7      0.075700
     52 H22       -13.1790    0.8030    4.9450 hc        1 2S7      0.047950
     53 H23       -13.2070   -0.4260    3.6330 hc        1 2S7      0.047950
     54 H24       -14.2620   -0.7350    6.2980 hc        1 2S7      0.040950
     55 H25       -14.0670   -2.0250    5.0560 hc        1 2S7      0.040950
     56 H26       -12.5650   -2.9720    6.5770 hc        1 2S7      0.040950
     57 H27       -12.3730   -1.4220    7.4790 hc        1 2S7      0.040950
     58 H28       -10.2700   -1.3850    6.4360 hc        1 2S7      0.047950
     59 H29       -10.8070   -2.4810    5.1030 hc        1 2S7      0.047950
     60 H30       -11.8960   -1.8890    2.9230 ho        1 2S7      0.408000
     61 H31       -11.9200    3.7800    2.5360 h4        1 2S7      0.021100
     62 H32       -12.0910    3.3950    0.0420 ha        1 2S7      0.144000
     63 H33       -11.5560    1.0950   -0.8580 ha        1 2S7      0.139000
     64 H34       -10.8770   -0.7080    0.7680 ha        1 2S7      0.160000
@<TRIPOS>BOND
     1    1    2 ar  
     2    1    8 ar  
     3    1   32 1   
     4    2    3 ar  
     5    2   33 1   
     6    3    4 1   
     7    3    6 ar  
     8    4    5 3   
     9    6    7 ar  
    10    6   34 1   
    11    7    8 ar  
    12    7   35 1   
    13    8    9 1   
    14    9   10 1   
    15   10   11 1   
    16   10   36 1   
    17   10   37 1   
    18   11   12 1   
    19   11   38 1   
    20   11   39 1   
    21   12   13 1   
    22   12   40 1   
    23   12   41 1   
    24   13   14 1   
    25   13   16 1   
    26   14   15 1   
    27   14   42 1   
    28   14   43 1   
    29   15   18 1   
    30   15   44 1   
    31   15   45 1   
    32   16   17 1   
    33   16   46 1   
    34   16   47 1   
    35   17   18 1   
    36   17   48 1   
    37   17   49 1   
    38   18   19 1   
    39   18   50 1   
    40   19   20 1   
    41   19   25 1   
    42   19   26 1   
    43   20   21 1   
    44   20   24 1   
    45   20   51 1   
    46   21   22 1   
    47   21   52 1   
    48   21   53 1   
    49   22   23 1   
    50   22   54 1   
    51   22   55 1   
    52   23   24 1   
    53   23   56 1   
    54   23   57 1   
    55   24   58 1   
    56   24   59 1   
    57   25   60 1   
    58   26   27 ar  
    59   26   31 ar  
    60   27   28 ar  
    61   28   29 ar  
    62   28   61 1   
    63   29   30 ar  
    64   29   62 1   
    65   30   31 ar  
    66   30   63 1   
    67   31   64 1   
@<TRIPOS>SUBSTRUCTURE
     1 2S7         1 TEMP              0 ****  ****    0 ROOT
