@<TRIPOS>MOLECULE
2S8
   57    58     1     0     0
SMALL
bcc


@<TRIPOS>ATOM
      1 OAD         5.4750   -0.3080   -0.4120 o         1 2S8     -0.572000
      2 CAU         5.0180   -0.6440    0.6860 c         1 2S8      0.645100
      3 OAF         5.3610   -1.8840    1.1330 oh        1 2S8     -0.603100
      4 CAZ         4.1390    0.1300    1.6410 c3        1 2S8     -0.019500
      5 CAW         2.8210    0.3770    1.0280 cc        1 2S8     -0.172400
      6 CAK         2.5700    0.8440   -0.2660 cd        1 2S8     -0.072100
      7 NAS         1.1990    0.9720   -0.4710 na        1 2S8     -0.186400
      8 CAX         0.5370    0.5770    0.6960 ca        1 2S8     -0.051200
      9 CAI        -0.8310    0.5190    1.0010 ca        1 2S8     -0.140000
     10 CAG        -1.1920    0.0790    2.2650 ca        1 2S8     -0.115000
     11 CAH        -0.2270   -0.2980    3.2170 ca        1 2S8     -0.151000
     12 CAJ         1.1290   -0.2450    2.9310 ca        1 2S8     -0.088000
     13 CAY         1.5360    0.1930    1.6700 ca        1 2S8     -0.076800
     14 CAQ         4.8360    1.4390    2.0090 c3        1 2S8     -0.079400
     15 CAO         6.1130    1.1950    2.7880 c3        1 2S8     -0.083400
     16 CAM         7.0110    2.4170    2.8100 c3        1 2S8     -0.075400
     17 CAL         8.1280    2.3620    1.7880 c3        1 2S8     -0.073400
     18 CAN         7.6180    2.3990    0.3650 c3        1 2S8     -0.123400
     19 CAP         8.7900    2.4140   -0.6190 c3        1 2S8      0.080000
     20 NAR         8.4230    2.3580   -2.0100 n         1 2S8     -0.511900
     21 CAV         8.1210    3.5070   -2.7310 c         1 2S8      0.729100
     22 OAE         7.5490    3.5230   -3.8350 o         1 2S8     -0.597000
     23 OAT         8.5690    4.6740   -2.1570 os        1 2S8     -0.445900
     24 CBA         8.5550    5.8980   -2.9370 c3        1 2S8      0.184800
     25 CAC         7.1280    6.3210   -3.2450 c3        1 2S8     -0.113433
     26 CAB         9.2140    6.9040   -1.9940 c3        1 2S8     -0.113433
     27 CAA         9.3790    5.7450   -4.2040 c3        1 2S8     -0.113433
     28 HAZ         4.0020   -0.4900    2.5740 hc        1 2S8      0.090700
     29 HAK         3.2920    1.0790   -1.0550 h4        1 2S8      0.186000
     30 HAI        -1.5890    0.8110    0.2630 ha        1 2S8      0.133000
     31 HAG        -2.2570    0.0220    2.5340 ha        1 2S8      0.131000
     32 HAH        -0.5630   -0.6430    4.2070 ha        1 2S8      0.131000
     33 HAJ         1.8760   -0.5440    3.6800 ha        1 2S8      0.133000
     34 HAQ         5.0580    2.0100    1.0680 hc        1 2S8      0.061200
     35 HAQA        4.1300    2.0590    2.6210 hc        1 2S8      0.061200
     36 HAO         6.6660    0.3250    2.3420 hc        1 2S8      0.042700
     37 HAOA        5.8480    0.9060    3.8400 hc        1 2S8      0.042700
     38 HAM         6.4000    3.3440    2.6460 hc        1 2S8      0.042700
     39 HAMA        7.4760    2.5070    3.8290 hc        1 2S8      0.042700
     40 HAL         8.8150    3.2340    1.9590 hc        1 2S8      0.040200
     41 HALA        8.7330    1.4290    1.9450 hc        1 2S8      0.040200
     42 HAN         6.9700    1.5010    0.1720 hc        1 2S8      0.055700
     43 HANA        6.9850    3.3120    0.2130 hc        1 2S8      0.055700
     44 HAP         9.4400    1.5120   -0.4220 h1        1 2S8      0.062700
     45 HAPA        9.4100    3.3380   -0.4420 h1        1 2S8      0.062700
     46 HNAR        5.9090   -2.3330    0.4690 ho        1 2S8      0.442000
     47 HAC         7.1320    7.3470   -3.6820 hc        1 2S8      0.051144
     48 HACA        6.5200    6.3250   -2.3090 hc        1 2S8      0.051144
     49 HACB        6.6600    5.6160   -3.9750 hc        1 2S8      0.051144
     50 HAB         9.2500    7.9000   -2.4930 hc        1 2S8      0.051144
     51 HABA       10.2510    6.5760   -1.7460 hc        1 2S8      0.051144
     52 HABB        8.6280    6.9850   -1.0480 hc        1 2S8      0.051144
     53 HAA         8.8730    5.0500   -4.9180 hc        1 2S8      0.051144
     54 HAAA       10.3880    5.3350   -3.9580 hc        1 2S8      0.051144
     55 HAAB        9.4990    6.7410   -4.6910 hc        1 2S8      0.051144
     56 HNAS        0.7630    1.2560   -1.3070 hn        1 2S8      0.302700
     57 HAR2        7.8750    1.5660   -2.2800 hn        1 2S8      0.317500
@<TRIPOS>BOND
     1    1    2 2   
     2    2    3 1   
     3    2    4 1   
     4    3   46 1   
     5    4    5 1   
     6    4   14 1   
     7    4   28 1   
     8    5    6 2   
     9    5   13 1   
    10    6    7 1   
    11    6   29 1   
    12    7    8 1   
    13    7   56 1   
    14    8    9 ar  
    15    8   13 ar  
    16    9   10 ar  
    17    9   30 1   
    18   10   11 ar  
    19   10   31 1   
    20   11   12 ar  
    21   11   32 1   
    22   12   13 ar  
    23   12   33 1   
    24   14   15 1   
    25   14   34 1   
    26   14   35 1   
    27   15   16 1   
    28   15   36 1   
    29   15   37 1   
    30   16   17 1   
    31   16   38 1   
    32   16   39 1   
    33   17   18 1   
    34   17   40 1   
    35   17   41 1   
    36   18   19 1   
    37   18   42 1   
    38   18   43 1   
    39   19   20 1   
    40   19   44 1   
    41   19   45 1   
    42   20   21 1   
    43   20   57 1   
    44   21   22 2   
    45   21   23 1   
    46   23   24 1   
    47   24   25 1   
    48   24   26 1   
    49   24   27 1   
    50   25   47 1   
    51   25   48 1   
    52   25   49 1   
    53   26   50 1   
    54   26   51 1   
    55   26   52 1   
    56   27   53 1   
    57   27   54 1   
    58   27   55 1   
@<TRIPOS>SUBSTRUCTURE
     1 2S8         1 TEMP              0 ****  ****    0 ROOT
