@<TRIPOS>MOLECULE
2S8
   57    58     1     0     0
SMALL
bcc


@<TRIPOS>ATOM
      1 OAD        -1.5690   -0.2440    3.7780 o         1 2S8     -0.582000
      2 CAU        -0.7530   -0.9860    3.2140 c         1 2S8      0.647100
      3 OAF        -1.2560   -2.1180    2.6560 oh        1 2S8     -0.618100
      4 CAZ         0.7430   -0.7950    3.1380 c3        1 2S8     -0.020500
      5 CAW         1.3190   -1.1680    1.8350 cc        1 2S8     -0.169400
      6 CAK         1.0320   -2.2880    1.0530 cd        1 2S8     -0.063100
      7 NAS         1.8220   -2.2870   -0.0960 na        1 2S8     -0.191400
      8 CAX         2.6270   -1.1430   -0.0790 ca        1 2S8     -0.050200
      9 CAI         3.5810   -0.6780   -0.9970 ca        1 2S8     -0.141000
     10 CAG         4.2350    0.5070   -0.7010 ca        1 2S8     -0.115000
     11 CAH         3.9610    1.2270    0.4760 ca        1 2S8     -0.152000
     12 CAJ         3.0210    0.7790    1.3930 ca        1 2S8     -0.089000
     13 CAY         2.3390   -0.4110    1.1350 ca        1 2S8     -0.080800
     14 CAQ         1.3940   -1.5690    4.2900 c3        1 2S8     -0.077400
     15 CAO         1.1960   -0.8590    5.6170 c3        1 2S8     -0.093400
     16 CAM         1.1370   -1.8090    6.7990 c3        1 2S8     -0.076400
     17 CAL        -0.2640   -1.9380    7.3700 c3        1 2S8     -0.076400
     18 CAN        -1.1940   -2.6590    6.4190 c3        1 2S8     -0.117400
     19 CAP        -2.6700   -2.3300    6.6800 c3        1 2S8      0.077000
     20 NAR        -3.4350   -2.0270    5.4940 n         1 2S8     -0.509900
     21 CAV        -3.8830   -3.0500    4.6650 c         1 2S8      0.728100
     22 OAE        -4.0920   -2.9300    3.4410 o         1 2S8     -0.622000
     23 OAT        -4.1370   -4.2360    5.3040 os        1 2S8     -0.436900
     24 CBA        -4.8760   -5.2750    4.6060 c3        1 2S8      0.184800
     25 CAC        -5.0440   -6.3450    5.6850 c3        1 2S8     -0.113767
     26 CAB        -6.2320   -4.7640    4.1530 c3        1 2S8     -0.113767
     27 CAA        -4.0640   -5.8200    3.4440 c3        1 2S8     -0.113767
     28 HAZ         0.9240    0.3100    3.3000 hc        1 2S8      0.090700
     29 HAK         0.3010   -3.0810    1.2380 h4        1 2S8      0.186000
     30 HAI         3.7990   -1.2340   -1.9180 ha        1 2S8      0.132000
     31 HAG         4.9880    0.8990   -1.4020 ha        1 2S8      0.130000
     32 HAH         4.5050    2.1640    0.6660 ha        1 2S8      0.130000
     33 HAJ         2.8120    1.3480    2.3090 ha        1 2S8      0.133000
     34 HAQ         2.4900   -1.6700    4.0760 hc        1 2S8      0.058200
     35 HAQA        0.9680   -2.6060    4.3200 hc        1 2S8      0.058200
     36 HAO         0.2530   -0.2480    5.5770 hc        1 2S8      0.050700
     37 HAOA        2.0400   -0.1340    5.7650 hc        1 2S8      0.050700
     38 HAM         1.5170   -2.8230    6.5070 hc        1 2S8      0.042200
     39 HAMA        1.8130   -1.4280    7.6100 hc        1 2S8      0.042200
     40 HAL        -0.6590   -0.9120    7.5970 hc        1 2S8      0.042700
     41 HALA       -0.2160   -2.4960    8.3420 hc        1 2S8      0.042700
     42 HAN        -1.0420   -3.7660    6.5090 hc        1 2S8      0.048700
     43 HANA       -0.9210   -2.3800    5.3630 hc        1 2S8      0.048700
     44 HAP        -3.1580   -3.1940    7.2130 h1        1 2S8      0.066200
     45 HAPA       -2.7500   -1.4210    7.3440 h1        1 2S8      0.066200
     46 HNAR       -3.1240   -1.2200    4.9830 hn        1 2S8      0.330500
     47 HAC        -5.6100   -5.9310    6.5530 hc        1 2S8      0.051700
     48 HACA       -4.0450   -6.6920    6.0410 hc        1 2S8      0.051700
     49 HACB       -5.6040   -7.2080    5.2550 hc        1 2S8      0.051700
     50 HAB        -6.8440   -5.6190    3.7790 hc        1 2S8      0.051700
     51 HABA       -6.1140   -4.0160    3.3310 hc        1 2S8      0.051700
     52 HABB       -6.7650   -4.2800    5.0060 hc        1 2S8      0.051700
     53 HAA        -3.0340   -6.0840    3.7860 hc        1 2S8      0.051700
     54 HAAA       -4.5590   -6.7360    3.0430 hc        1 2S8      0.051700
     55 HAAB       -3.9890   -5.0600    2.6290 hc        1 2S8      0.051700
     56 HNAS        1.7680   -2.9360   -0.8340 hn        1 2S8      0.300700
     57 HAR2       -2.2310   -2.1310    2.7380 ho        1 2S8      0.469000
@<TRIPOS>BOND
     1    1    2 2   
     2    2    3 1   
     3    2    4 1   
     4    3   57 1   
     5    4    5 1   
     6    4   14 1   
     7    4   28 1   
     8    5    6 2   
     9    5   13 1   
    10    6    7 1   
    11    6   29 1   
    12    7    8 1   
    13    7   56 1   
    14    8    9 ar  
    15    8   13 ar  
    16    9   10 ar  
    17    9   30 1   
    18   10   11 ar  
    19   10   31 1   
    20   11   12 ar  
    21   11   32 1   
    22   12   13 ar  
    23   12   33 1   
    24   14   15 1   
    25   14   34 1   
    26   14   35 1   
    27   15   16 1   
    28   15   36 1   
    29   15   37 1   
    30   16   17 1   
    31   16   38 1   
    32   16   39 1   
    33   17   18 1   
    34   17   40 1   
    35   17   41 1   
    36   18   19 1   
    37   18   42 1   
    38   18   43 1   
    39   19   20 1   
    40   19   44 1   
    41   19   45 1   
    42   20   21 1   
    43   20   46 1   
    44   21   22 2   
    45   21   23 1   
    46   23   24 1   
    47   24   25 1   
    48   24   26 1   
    49   24   27 1   
    50   25   47 1   
    51   25   48 1   
    52   25   49 1   
    53   26   50 1   
    54   26   51 1   
    55   26   52 1   
    56   27   53 1   
    57   27   54 1   
    58   27   55 1   
@<TRIPOS>SUBSTRUCTURE
     1 2S8         1 TEMP              0 ****  ****    0 ROOT
