@<TRIPOS>MOLECULE
2S8
   56    52     1     0     0
SMALL
bcc


@<TRIPOS>ATOM
      1 OAD         1.6810    3.1000   -4.6300 o         1 2S8     -0.844800
      2 CAU         2.3220    2.1070   -4.1780 c         1 2S8      0.920600
      3 OAF         2.5780    1.1410   -4.9230 o         1 2S8     -0.844800
      4 CAZ         2.8820    2.1470   -2.7730 c3        1 2S8     -0.128500
      5 CAW         4.3590    2.2510   -2.8330 ce        1 2S8     -0.133000
      6 CAK         5.1350    1.1910   -3.2510 c1        1 2S8      0.218500
      7 NAS         6.4450    1.6000   -3.2530 nf        1 2S8     -0.501400
      8 CAX         6.4850    2.9150   -2.8360 ch        1 2S8      0.032000
      9 CAI         7.5490    3.8180   -2.6750 c1        1 2S8     -0.081500
     10 CAG         7.3010    5.1150   -2.2550 c1        1 2S8     -0.081500
     11 CAH         5.9940    5.5240   -1.9910 c1        1 2S8     -0.081500
     12 CAJ         4.9440    4.6340   -2.1490 c1        1 2S8     -0.081500
     13 CAY         5.1970    3.3180   -2.5760 cg        1 2S8     -0.102300
     14 CAQ         2.4860    0.8540   -2.0220 c3        1 2S8     -0.050400
     15 CAO         1.0710    1.0070   -1.4580 c3        1 2S8     -0.089400
     16 CAM         0.7030   -0.2440   -0.6300 c3        1 2S8     -0.074400
     17 CAL        -0.7740   -0.1100   -0.1130 c3        1 2S8     -0.077400
     18 CAN        -1.1540   -1.3660    0.6870 c3        1 2S8     -0.111400
     19 CAP        -2.5960   -1.2140    1.2380 c3        1 2S8      0.069000
     20 NAR        -2.9240   -2.3630    2.0470 n         1 2S8     -0.507900
     21 CAV        -4.2200   -2.4680    2.6520 c         1 2S8      0.729100
     22 OAE        -4.9980   -1.5440    2.5800 o         1 2S8     -0.591000
     23 OAT        -4.5990   -3.6720    3.3240 os        1 2S8     -0.458900
     24 CBA        -5.9390   -3.6540    3.8450 c3        1 2S8      0.186800
     25 CAC        -6.9400   -3.5710    2.6820 c3        1 2S8     -0.112767
     26 CAB        -6.1940   -4.9490    4.6550 c3        1 2S8     -0.112767
     27 CAA        -6.1130   -2.4480    4.7510 c3        1 2S8     -0.112767
     28 HAZ         2.5200    2.9230   -2.2980 hc        1 2S8      0.048700
     29 HAK         4.7990    0.3190   -3.5720 DU        1 2S8      0.221500
     30 HAI         8.4590    3.5350   -2.8670 ha        1 2S8      0.059000
     31 HAG         8.0510    5.7510   -2.1420 ha        1 2S8      0.059000
     32 HAH         5.8150    6.4530   -1.7080 ha        1 2S8      0.059000
     33 HAJ         4.0360    4.9180   -1.9660 ha        1 2S8      0.059000
     34 HAQ         3.1100    0.6980   -1.2930 hc        1 2S8      0.028200
     35 HAQA        2.5110    0.0950   -2.6420 hc        1 2S8      0.028200
     36 HAO         1.0330    1.7890   -0.8910 hc        1 2S8      0.057200
     37 HAOA        0.4370    1.1080   -2.1930 hc        1 2S8      0.057200
     38 HAM         1.3180   -0.3220    0.1430 hc        1 2S8      0.032200
     39 HAMA        0.7800   -1.0420   -1.1920 hc        1 2S8      0.032200
     40 HAL        -1.3750   -0.0140   -0.8720 hc        1 2S8      0.044200
     41 HALA       -0.8480    0.6860    0.4680 hc        1 2S8      0.044200
     42 HAN        -1.1110   -2.1420    0.1100 hc        1 2S8      0.042200
     43 HANA       -0.5300   -1.4800    1.4340 hc        1 2S8      0.042200
     44 HAP        -2.6530   -0.3980    1.7860 h1        1 2S8      0.069700
     45 HAPA       -3.2280   -1.1510    0.4890 h1        1 2S8      0.069700
     46 HNAR       -2.3190   -3.0280    2.1550 hn        1 2S8      0.305500
     47 HAC        -6.5810   -4.0520    1.9060 hc        1 2S8      0.049367
     48 HACA       -7.0900   -2.6260    2.4430 hc        1 2S8      0.049367
     49 HACB       -7.7990   -3.9820    2.9550 hc        1 2S8      0.049367
     50 HAB        -5.4530   -5.0870    5.2980 hc        1 2S8      0.049367
     51 HABA       -6.2410   -5.7180    4.0390 hc        1 2S8      0.049367
     52 HABB       -7.0440   -4.8680    5.1450 hc        1 2S8      0.049367
     53 HAA        -6.8710   -2.5970    5.3500 hc        1 2S8      0.049367
     54 HAAA       -6.2780   -1.6560    4.2090 hc        1 2S8      0.049367
     55 HAAB       -5.2990   -2.3170    5.2810 hc        1 2S8      0.049367
     56 HNAS        7.1670    1.0900   -3.4890 DU        1 2S8      0.221500
@<TRIPOS>BOND
     1    1    2 1   
     2    2    3 1   
     3    2    4 1   
     4    4    5 1   
     5    4   14 1   
     6    4   28 1   
     7    5    6 2   
     8    5   13 1   
     9    6    7 2   
    10    7    8 1   
    11    8   13 3   
    12    9   10 3   
    13    9   30 1   
    14   10   31 1   
    15   11   12 3   
    16   11   32 1   
    17   12   33 1   
    18   14   15 1   
    19   14   34 1   
    20   14   35 1   
    21   15   16 1   
    22   15   36 1   
    23   15   37 1   
    24   16   17 1   
    25   16   38 1   
    26   16   39 1   
    27   17   18 1   
    28   17   40 1   
    29   17   41 1   
    30   18   19 1   
    31   18   42 1   
    32   18   43 1   
    33   19   20 1   
    34   19   44 1   
    35   19   45 1   
    36   20   21 1   
    37   20   46 1   
    38   21   22 2   
    39   21   23 1   
    40   23   24 1   
    41   24   25 1   
    42   24   26 1   
    43   24   27 1   
    44   25   47 1   
    45   25   48 1   
    46   25   49 1   
    47   26   50 1   
    48   26   51 1   
    49   26   52 1   
    50   27   53 1   
    51   27   54 1   
    52   27   55 1   
@<TRIPOS>SUBSTRUCTURE
     1 2S8         1 TEMP              0 ****  ****    0 ROOT
