@<TRIPOS>MOLECULE
2S8
   56    57     1     0     0
SMALL
bcc


@<TRIPOS>ATOM
      1 OAD         3.2110   -3.3560    0.1980 o         1 2S8     -0.844800
      2 CAU         3.5280   -2.3660    0.9150 c         1 2S8      0.920600
      3 OAF         3.8000   -2.4490    2.1470 o         1 2S8     -0.844800
      4 CAZ         3.5350   -0.9720    0.2210 c3        1 2S8     -0.128500
      5 CAW         4.6820   -0.1370    0.6150 cc        1 2S8     -0.091400
      6 CAK         5.3730   -0.1890    1.8230 cd        1 2S8     -0.092100
      7 NAS         6.3840    0.7890    1.8570 na        1 2S8     -0.206400
      8 CAX         6.4100    1.4230    0.6090 ca        1 2S8     -0.065200
      9 CAI         7.2390    2.4370    0.1120 ca        1 2S8     -0.158000
     10 CAG         6.9860    2.9160   -1.1670 ca        1 2S8     -0.137000
     11 CAH         5.9330    2.4100   -1.9440 ca        1 2S8     -0.177000
     12 CAJ         5.1010    1.4050   -1.4640 ca        1 2S8     -0.084000
     13 CAY         5.3210    0.8920   -0.1890 ca        1 2S8     -0.080800
     14 CAQ         2.2170   -0.2690    0.5280 c3        1 2S8     -0.050400
     15 CAO         1.0670   -0.9420   -0.1920 c3        1 2S8     -0.089400
     16 CAM        -0.2690   -0.4660    0.3350 c3        1 2S8     -0.074400
     17 CAL        -1.4150   -1.1370   -0.3930 c3        1 2S8     -0.077400
     18 CAN        -2.7480   -0.7430    0.2050 c3        1 2S8     -0.111400
     19 CAP        -3.8860   -1.4380   -0.5420 c3        1 2S8      0.069000
     20 NAR        -5.1970   -1.2680    0.0400 n         1 2S8     -0.507900
     21 CAV        -6.0290   -0.2670   -0.4430 c         1 2S8      0.729100
     22 OAE        -6.0270    0.2450   -1.5740 o         1 2S8     -0.591000
     23 OAT        -6.9870    0.0900    0.4840 os        1 2S8     -0.458900
     24 CBA        -8.0950    0.9290    0.0780 c3        1 2S8      0.186800
     25 CAC        -8.8830    0.2820   -1.0490 c3        1 2S8     -0.112767
     26 CAB        -8.9470    1.0030    1.3450 c3        1 2S8     -0.112767
     27 CAA        -7.6050    2.3160   -0.3070 c3        1 2S8     -0.112767
     28 HAZ         3.5960   -1.1540   -0.8900 hc        1 2S8      0.048700
     29 HAK         5.1840   -0.8720    2.6630 h4        1 2S8      0.220000
     30 HAI         8.0640    2.8400    0.7130 ha        1 2S8      0.114000
     31 HAG         7.6250    3.7080   -1.5820 ha        1 2S8      0.108000
     32 HAH         5.7680    2.8190   -2.9510 ha        1 2S8      0.111000
     33 HAJ         4.2770    1.0110   -2.0760 ha        1 2S8      0.133000
     34 HAQ         2.0450   -0.3000    1.6360 hc        1 2S8      0.028200
     35 HAQA        2.2750    0.8080    0.2220 hc        1 2S8      0.028200
     36 HAO         1.1350   -0.7320   -1.2910 hc        1 2S8      0.057200
     37 HAOA        1.1620   -2.0570   -0.0610 hc        1 2S8      0.057200
     38 HAM        -0.3380   -0.6930    1.4320 hc        1 2S8      0.032200
     39 HAMA       -0.3500    0.6470    0.2210 hc        1 2S8      0.032200
     40 HAL        -1.3890   -0.8540   -1.4780 hc        1 2S8      0.044200
     41 HALA       -1.2880   -2.2510   -0.3370 hc        1 2S8      0.044200
     42 HAN        -2.7660   -1.0260    1.2900 hc        1 2S8      0.042200
     43 HANA       -2.8760    0.3690    0.1470 hc        1 2S8      0.042200
     44 HAP        -3.9100   -1.0730   -1.6080 h1        1 2S8      0.069700
     45 HAPA       -3.6890   -2.5500   -0.5540 h1        1 2S8      0.069700
     46 HNAR       -5.2550   -1.4290    1.0230 hn        1 2S8      0.305500
     47 HAC        -9.1450   -0.7680   -0.7790 hc        1 2S8      0.049367
     48 HACA       -9.8220    0.8590   -1.2230 hc        1 2S8      0.049367
     49 HACB       -8.2810    0.2740   -1.9900 hc        1 2S8      0.049367
     50 HAB        -8.3530    1.4390    2.1820 hc        1 2S8      0.049367
     51 HABA       -9.8370    1.6450    1.1490 hc        1 2S8      0.049367
     52 HABB       -9.2850   -0.0180    1.6410 hc        1 2S8      0.049367
     53 HAA        -7.0190    2.2720   -1.2570 hc        1 2S8      0.049367
     54 HAAA       -8.4810    2.9920   -0.4500 hc        1 2S8      0.049367
     55 HAAB       -6.9520    2.7280    0.4980 hc        1 2S8      0.049367
     56 HNAS        7.1630    0.7500    2.4580 hn        1 2S8      0.272700
@<TRIPOS>BOND
     1    1    2 1   
     2    2    3 1   
     3    2    4 1   
     4    4    5 1   
     5    4   14 1   
     6    4   28 1   
     7    5    6 2   
     8    5   13 1   
     9    6    7 1   
    10    6   29 1   
    11    7    8 1   
    12    7   56 1   
    13    8    9 ar  
    14    8   13 ar  
    15    9   10 ar  
    16    9   30 1   
    17   10   11 ar  
    18   10   31 1   
    19   11   12 ar  
    20   11   32 1   
    21   12   13 ar  
    22   12   33 1   
    23   14   15 1   
    24   14   34 1   
    25   14   35 1   
    26   15   16 1   
    27   15   36 1   
    28   15   37 1   
    29   16   17 1   
    30   16   38 1   
    31   16   39 1   
    32   17   18 1   
    33   17   40 1   
    34   17   41 1   
    35   18   19 1   
    36   18   42 1   
    37   18   43 1   
    38   19   20 1   
    39   19   44 1   
    40   19   45 1   
    41   20   21 1   
    42   20   46 1   
    43   21   22 2   
    44   21   23 1   
    45   23   24 1   
    46   24   25 1   
    47   24   26 1   
    48   24   27 1   
    49   25   47 1   
    50   25   48 1   
    51   25   49 1   
    52   26   50 1   
    53   26   51 1   
    54   26   52 1   
    55   27   53 1   
    56   27   54 1   
    57   27   55 1   
@<TRIPOS>SUBSTRUCTURE
     1 2S8         1 TEMP              0 ****  ****    0 ROOT
