@<TRIPOS>MOLECULE
2S8
   57    58     1     0     0
SMALL
bcc


@<TRIPOS>ATOM
      1 OAD         4.7410    2.5740   -0.3480 o         1 2S8     -0.582000
      2 CAU         4.5920    1.3740   -0.0850 c         1 2S8      0.650100
      3 OAF         5.0600    0.4900   -1.0080 oh        1 2S8     -0.604100
      4 CAZ         4.0030    0.7280    1.1470 c3        1 2S8     -0.019500
      5 CAW         2.6520    1.2510    1.4150 cc        1 2S8     -0.174400
      6 CAK         2.2210    2.5760    1.3060 cd        1 2S8     -0.070100
      7 NAS         0.8800    2.6750    1.6690 na        1 2S8     -0.187400
      8 CAX         0.4180    1.3990    2.0090 ca        1 2S8     -0.051200
      9 CAI        -0.8460    0.9630    2.4340 ca        1 2S8     -0.140000
     10 CAG        -1.0050   -0.3870    2.7050 ca        1 2S8     -0.115000
     11 CAH         0.0570   -1.2970    2.5620 ca        1 2S8     -0.151000
     12 CAJ         1.3130   -0.8820    2.1440 ca        1 2S8     -0.089000
     13 CAY         1.5180    0.4700    1.8620 ca        1 2S8     -0.077800
     14 CAQ         4.9520    0.9820    2.3210 c3        1 2S8     -0.077400
     15 CAO         6.2350    0.1860    2.1800 c3        1 2S8     -0.089400
     16 CAM         7.4090    0.8380    2.8870 c3        1 2S8     -0.077400
     17 CAL         8.4940    1.2960    1.9300 c3        1 2S8     -0.075400
     18 CAN         8.0330    2.3890    0.9850 c3        1 2S8     -0.116400
     19 CAP         8.1420    1.9370   -0.4730 c3        1 2S8      0.073000
     20 NAR         7.5850    2.8470   -1.4440 ns        1 2S8     -0.524900
     21 CAV         8.4340    3.7490   -2.0780 c         1 2S8      0.729100
     22 OAE         9.6630    3.6460   -2.2270 o         1 2S8     -0.593000
     23 OAT         7.7420    4.8060   -2.6210 os        1 2S8     -0.449900
     24 CBA         8.4160    5.7020   -3.5410 c3        1 2S8      0.185800
     25 CAC         9.5110    6.4780   -2.8270 c3        1 2S8     -0.113100
     26 CAB         7.2940    6.6450   -3.9760 c3        1 2S8     -0.113100
     27 CAA         8.9610    4.9420   -4.7390 c3        1 2S8     -0.113100
     28 HAZ         3.9360   -0.3850    0.9650 hc        1 2S8      0.091700
     29 HAK         2.7920    3.4510    0.9770 h4        1 2S8      0.188000
     30 HAI        -1.6800    1.6690    2.5470 ha        1 2S8      0.133000
     31 HAG        -1.9850   -0.7590    3.0390 ha        1 2S8      0.131000
     32 HAH        -0.1190   -2.3600    2.7870 ha        1 2S8      0.131000
     33 HAJ         2.1380   -1.6000    2.0330 ha        1 2S8      0.133000
     34 HAQ         4.4290    0.6980    3.2710 hc        1 2S8      0.060700
     35 HAQA        5.1690    2.0820    2.3750 hc        1 2S8      0.060700
     36 HAO         6.0720   -0.8430    2.5940 hc        1 2S8      0.046700
     37 HAOA        6.4760    0.0570    1.0890 hc        1 2S8      0.046700
     38 HAM         7.0620    1.7130    3.4980 hc        1 2S8      0.042700
     39 HAMA        7.8620    0.1020    3.6040 hc        1 2S8      0.042700
     40 HAL         9.3620    1.6730    2.5340 hc        1 2S8      0.043700
     41 HALA        8.8660    0.4100    1.3490 hc        1 2S8      0.043700
     42 HAN         6.9680    2.6710    1.2090 hc        1 2S8      0.051200
     43 HANA        8.6560    3.3090    1.1370 hc        1 2S8      0.051200
     44 HAP         9.2250    1.7480   -0.7250 h1        1 2S8      0.066200
     45 HAPA        7.5740    0.9670   -0.5950 h1        1 2S8      0.066200
     46 HNAR        5.4380    0.9680   -1.7650 ho        1 2S8      0.449000
     47 HAC         9.1040    6.9470   -1.9000 hc        1 2S8      0.050922
     48 HACA        9.8960    7.2800   -3.5010 hc        1 2S8      0.050922
     49 HACB       10.3530    5.7990   -2.5490 hc        1 2S8      0.050922
     50 HAB         6.8690    7.1710   -3.0890 hc        1 2S8      0.050922
     51 HABA        7.7070    7.3960   -4.6890 hc        1 2S8      0.050922
     52 HABB        6.4790    6.0690   -4.4740 hc        1 2S8      0.050922
     53 HAA         9.3190    5.6670   -5.5070 hc        1 2S8      0.050922
     54 HAAA        8.1600    4.3050   -5.1850 hc        1 2S8      0.050922
     55 HAAB        9.8120    4.2870   -4.4310 hc        1 2S8      0.050922
     56 HNAS        0.3330    3.4930    1.6450 hn        1 2S8      0.301700
     57 HAR2        6.6620    3.1830   -1.2480 hn        1 2S8      0.326500
@<TRIPOS>BOND
     1    1    2 2   
     2    2    3 1   
     3    2    4 1   
     4    3   46 1   
     5    4    5 1   
     6    4   14 1   
     7    4   28 1   
     8    5    6 2   
     9    5   13 1   
    10    6    7 1   
    11    6   29 1   
    12    7    8 1   
    13    7   56 1   
    14    8    9 ar  
    15    8   13 ar  
    16    9   10 ar  
    17    9   30 1   
    18   10   11 ar  
    19   10   31 1   
    20   11   12 ar  
    21   11   32 1   
    22   12   13 ar  
    23   12   33 1   
    24   14   15 1   
    25   14   34 1   
    26   14   35 1   
    27   15   16 1   
    28   15   36 1   
    29   15   37 1   
    30   16   17 1   
    31   16   38 1   
    32   16   39 1   
    33   17   18 1   
    34   17   40 1   
    35   17   41 1   
    36   18   19 1   
    37   18   42 1   
    38   18   43 1   
    39   19   20 1   
    40   19   44 1   
    41   19   45 1   
    42   20   21 1   
    43   20   57 1   
    44   21   22 2   
    45   21   23 1   
    46   23   24 1   
    47   24   25 1   
    48   24   26 1   
    49   24   27 1   
    50   25   47 1   
    51   25   48 1   
    52   25   49 1   
    53   26   50 1   
    54   26   51 1   
    55   26   52 1   
    56   27   53 1   
    57   27   54 1   
    58   27   55 1   
@<TRIPOS>SUBSTRUCTURE
     1 2S8         1 TEMP              0 ****  ****    0 ROOT
