@<TRIPOS>MOLECULE
2S9
   65    68     1     0     0
SMALL
bcc


@<TRIPOS>ATOM
      1 CAL         0.1620    0.1400    0.0630 ca        1 2S9     -0.160000
      2 CAY         1.5560    0.3200    0.1060 ca        1 2S9      0.124900
      3 FAC         2.2790    0.2200   -1.0360 f         1 2S9     -0.141900
      4 CAF         2.2040    0.6030    1.3220 ca        1 2S9     -0.164000
      5 CAE         1.4400    0.7110    2.4790 ca        1 2S9     -0.104000
      6 CAI         0.0580    0.5320    2.4400 ca        1 2S9     -0.140000
      7 CBB        -0.5940    0.2360    1.2350 ca        1 2S9     -0.071300
      8 CBF        -2.0960    0.0390    1.1980 c3        1 2S9      0.212100
      9 CBC        -2.7240    0.8960    0.0800 c3        1 2S9     -0.049700
     10 CAQ        -2.4370    2.3900    0.2450 c3        1 2S9     -0.075900
     11 CAM        -3.6320    3.1300   -0.3410 c3        1 2S9     -0.076900
     12 CAN        -4.7620    2.1190   -0.4970 c3        1 2S9     -0.076900
     13 CAR        -4.2480    0.7810    0.0170 c3        1 2S9     -0.075900
     14 OAB        -2.6920    0.5290    2.4050 oh        1 2S9     -0.592800
     15 CBD        -2.4790   -1.4560    1.0460 c3        1 2S9     -0.089700
     16 CAT        -2.2160   -2.0290   -0.3360 c3        1 2S9     -0.078900
     17 CAW        -2.6700   -3.4860   -0.4130 c3        1 2S9      0.169800
     18 CAS        -1.7750   -2.3320    2.0720 c3        1 2S9     -0.078900
     19 CAV        -2.2180   -3.7890    1.9510 c3        1 2S9      0.169800
     20 NBE        -2.0690   -4.3340    0.6090 n3        1 2S9     -0.726600
     21 CAU        -2.5390   -5.7080    0.5000 c3        1 2S9      0.174800
     22 CAO        -1.7740   -6.6910    1.3840 c3        1 2S9     -0.089400
     23 CAP        -2.1420   -8.1080    0.9780 c3        1 2S9      0.127400
     24 OAX        -1.4970   -8.9610    1.9350 os        1 2S9     -0.324900
     25 CBA        -1.6750  -10.3140    1.7580 ca        1 2S9      0.154100
     26 CAJ        -1.0150  -11.1220    2.7070 ca        1 2S9     -0.189500
     27 CAG        -1.1300  -12.5020    2.6240 ca        1 2S9     -0.055500
     28 CAZ        -1.8970  -13.0890    1.6030 ca        1 2S9     -0.059000
     29 CAD        -2.0090  -14.5020    1.5250 cg        1 2S9      0.238800
     30 NAA        -2.1020  -15.6610    1.4610 n1        1 2S9     -0.370800
     31 CAH        -2.5480  -12.2800    0.6650 ca        1 2S9     -0.055500
     32 CAK        -2.4420  -10.8920    0.7370 ca        1 2S9     -0.189500
     33 H1         -0.3140   -0.0660   -0.9080 ha        1 2S9      0.150000
     34 H2          3.2940    0.7410    1.3430 ha        1 2S9      0.150000
     35 H3          1.9330    0.9420    3.4350 ha        1 2S9      0.138000
     36 H4         -0.5190    0.6470    3.3700 ha        1 2S9      0.138000
     37 H5         -2.2910    0.5520   -0.8980 hc        1 2S9      0.049700
     38 H6         -2.3200    2.6370    1.3310 hc        1 2S9      0.050700
     39 H7         -1.4880    2.6700   -0.2740 hc        1 2S9      0.050700
     40 H8         -3.3690    3.5760   -1.3330 hc        1 2S9      0.039700
     41 H9         -3.9390    3.9700    0.3300 hc        1 2S9      0.039700
     42 H10        -5.6660    2.4390    0.0770 hc        1 2S9      0.039700
     43 H11        -5.0630    2.0350   -1.5720 hc        1 2S9      0.039700
     44 H12        -4.5590   -0.0590   -0.6500 hc        1 2S9      0.050700
     45 H13        -4.6570    0.5790    1.0400 hc        1 2S9      0.050700
     46 H14        -2.4540   -0.0760    3.1170 ho        1 2S9      0.400000
     47 H15        -3.5910   -1.5050    1.2390 hc        1 2S9      0.062700
     48 H16        -1.1230   -1.9660   -0.5750 hc        1 2S9      0.053200
     49 H17        -2.7820   -1.4550   -1.1150 hc        1 2S9      0.053200
     50 H18        -3.7990   -3.5120   -0.3600 h1        1 2S9      0.032200
     51 H19        -2.3660   -3.9000   -1.4160 h1        1 2S9      0.032200
     52 H20        -0.6650   -2.2570    1.9290 hc        1 2S9      0.053200
     53 H21        -2.0100   -1.9960    3.1140 hc        1 2S9      0.053200
     54 H22        -3.2870   -3.8690    2.3120 h1        1 2S9      0.032200
     55 H23        -1.5770   -4.4100    2.6390 h1        1 2S9      0.032200
     56 H25        -3.6400   -5.7940    0.7420 h1        1 2S9      0.031200
     57 H26        -2.4060   -6.0200   -0.5770 h1        1 2S9      0.031200
     58 H27        -2.0340   -6.5370    2.4630 hc        1 2S9      0.067200
     59 H28        -0.6680   -6.5470    1.2800 hc        1 2S9      0.067200
     60 H29        -3.2510   -8.2700    1.0220 h1        1 2S9      0.042700
     61 H30        -1.7640   -8.3480   -0.0510 h1        1 2S9      0.042700
     62 H31        -0.4190  -10.6460    3.4990 ha        1 2S9      0.150500
     63 H32        -0.6170  -13.1400    3.3610 ha        1 2S9      0.146500
     64 H33        -3.1490  -12.7390   -0.1350 ha        1 2S9      0.146500
     65 H34        -2.9590  -10.2720   -0.0070 ha        1 2S9      0.150500
@<TRIPOS>BOND
     1    1    2 ar  
     2    1    7 ar  
     3    1   33 1   
     4    2    3 1   
     5    2    4 ar  
     6    4    5 ar  
     7    4   34 1   
     8    5    6 ar  
     9    5   35 1   
    10    6    7 ar  
    11    6   36 1   
    12    7    8 1   
    13    8    9 1   
    14    8   14 1   
    15    8   15 1   
    16    9   10 1   
    17    9   13 1   
    18    9   37 1   
    19   10   11 1   
    20   10   38 1   
    21   10   39 1   
    22   11   12 1   
    23   11   40 1   
    24   11   41 1   
    25   12   13 1   
    26   12   42 1   
    27   12   43 1   
    28   13   44 1   
    29   13   45 1   
    30   14   46 1   
    31   15   16 1   
    32   15   18 1   
    33   15   47 1   
    34   16   17 1   
    35   16   48 1   
    36   16   49 1   
    37   17   20 1   
    38   17   50 1   
    39   17   51 1   
    40   18   19 1   
    41   18   52 1   
    42   18   53 1   
    43   19   20 1   
    44   19   54 1   
    45   19   55 1   
    46   20   21 1   
    47   21   22 1   
    48   21   56 1   
    49   21   57 1   
    50   22   23 1   
    51   22   58 1   
    52   22   59 1   
    53   23   24 1   
    54   23   60 1   
    55   23   61 1   
    56   24   25 1   
    57   25   26 ar  
    58   25   32 ar  
    59   26   27 ar  
    60   26   62 1   
    61   27   28 ar  
    62   27   63 1   
    63   28   29 1   
    64   28   31 ar  
    65   29   30 3   
    66   31   32 ar  
    67   31   64 1   
    68   32   65 1   
@<TRIPOS>SUBSTRUCTURE
     1 2S9         1 TEMP              0 ****  ****    0 ROOT
