@<TRIPOS>MOLECULE
2S9
   65    68     1     0     0
SMALL
bcc


@<TRIPOS>ATOM
      1 CAL         0.2250    0.1620   -0.0420 ca        1 2S9     -0.160000
      2 CAY         1.6200    0.3360   -0.0250 ca        1 2S9      0.124900
      3 FAC         2.3210    0.2290   -1.1810 f         1 2S9     -0.141900
      4 CAF         2.2920    0.6220    1.1770 ca        1 2S9     -0.164000
      5 CAE         1.5500    0.7370    2.3480 ca        1 2S9     -0.104000
      6 CAI         0.1670    0.5640    2.3350 ca        1 2S9     -0.140000
      7 CBB        -0.5090    0.2650    1.1440 ca        1 2S9     -0.071300
      8 CBF        -2.0120    0.0740    1.1360 c3        1 2S9      0.212100
      9 CBC        -2.6580    0.9290    0.0260 c3        1 2S9     -0.049700
     10 CAQ        -2.3620    2.4220    0.1800 c3        1 2S9     -0.075900
     11 CAM        -3.5650    3.1640   -0.3870 c3        1 2S9     -0.076900
     12 CAN        -4.7020    2.1570   -0.5170 c3        1 2S9     -0.076900
     13 CAR        -4.1830    0.8190   -0.0070 c3        1 2S9     -0.075900
     14 OAB        -2.5830    0.5710    2.3520 oh        1 2S9     -0.592800
     15 CBD        -2.4030   -1.4200    0.9970 c3        1 2S9     -0.089700
     16 CAT        -2.1690   -2.0000   -0.3870 c3        1 2S9     -0.078900
     17 CAW        -2.6290   -3.4550   -0.4490 c3        1 2S9      0.169800
     18 CAS        -1.6830   -2.2950    2.0130 c3        1 2S9     -0.078900
     19 CAV        -2.1340   -3.7510    1.9070 c3        1 2S9      0.169800
     20 NBE        -2.0130   -4.3010    0.5650 n3        1 2S9     -0.726600
     21 CAU        -2.4890   -5.6750    0.4700 c3        1 2S9      0.174800
     22 CAO        -1.7120   -6.6570    1.3450 c3        1 2S9     -0.089400
     23 CAP        -2.0930   -8.0740    0.9520 c3        1 2S9      0.127400
     24 OAX        -1.4350   -8.9250    1.9010 os        1 2S9     -0.324900
     25 CBA        -1.6220  -10.2780    1.7340 ca        1 2S9      0.154100
     26 CAJ        -0.9480  -11.0850    2.6740 ca        1 2S9     -0.189500
     27 CAG        -1.0700  -12.4640    2.6000 ca        1 2S9     -0.055500
     28 CAZ        -1.8580  -13.0530    1.5960 ca        1 2S9     -0.059000
     29 CAD        -1.9780  -14.4660    1.5270 cg        1 2S9      0.238800
     30 NAA        -2.0760  -15.6240    1.4700 n1        1 2S9     -0.370800
     31 CAH        -2.5230  -12.2450    0.6660 ca        1 2S9     -0.055500
     32 CAK        -2.4090  -10.8580    0.7300 ca        1 2S9     -0.189500
     33 H1         -0.2700   -0.0460   -1.0020 ha        1 2S9      0.150000
     34 H2          3.3820    0.7550    1.1770 ha        1 2S9      0.150000
     35 H3          2.0620    0.9710    3.2940 ha        1 2S9      0.138000
     36 H4         -0.3930    0.6840    3.2750 ha        1 2S9      0.138000
     37 H5         -2.2440    0.5790   -0.9580 hc        1 2S9      0.049700
     38 H6         -1.4220    2.6960   -0.3580 hc        1 2S9      0.050700
     39 H7         -2.2240    2.6740    1.2620 hc        1 2S9      0.050700
     40 H8         -3.3190    3.6050   -1.3850 hc        1 2S9      0.039700
     41 H9         -3.8560    4.0080    0.2860 hc        1 2S9      0.039700
     42 H10        -5.5930    2.4830    0.0730 hc        1 2S9      0.039700
     43 H11        -5.0230    2.0700   -1.5860 hc        1 2S9      0.039700
     44 H12        -4.5730    0.6230    1.0240 hc        1 2S9      0.050700
     45 H13        -4.5100   -0.0220   -0.6650 hc        1 2S9      0.050700
     46 H14        -2.3340   -0.0320    3.0620 ho        1 2S9      0.400000
     47 H15        -3.5110   -1.4640    1.2120 hc        1 2S9      0.062700
     48 H16        -2.7470   -1.4270   -1.1570 hc        1 2S9      0.053200
     49 H17        -1.0800   -1.9420   -0.6460 hc        1 2S9      0.053200
     50 H18        -3.7570   -3.4770   -0.3750 h1        1 2S9      0.032200
     51 H19        -2.3460   -3.8740   -1.4560 h1        1 2S9      0.032200
     52 H20        -1.8970   -1.9530    3.0590 hc        1 2S9      0.053200
     53 H21        -0.5760   -2.2250    1.8500 hc        1 2S9      0.053200
     54 H22        -3.1960   -3.8250    2.2890 h1        1 2S9      0.032200
     55 H23        -1.4830   -4.3720    2.5850 h1        1 2S9      0.032200
     56 H25        -3.5860   -5.7550    0.7340 h1        1 2S9      0.031200
     57 H26        -2.3770   -5.9910   -0.6070 h1        1 2S9      0.031200
     58 H27        -1.9520   -6.4970    2.4280 hc        1 2S9      0.067200
     59 H28        -0.6080   -6.5170    1.2190 hc        1 2S9      0.067200
     60 H29        -3.2020   -8.2310    1.0180 h1        1 2S9      0.042700
     61 H30        -1.7360   -8.3200   -0.0830 h1        1 2S9      0.042700
     62 H31        -0.3350  -10.6080    3.4520 ha        1 2S9      0.150500
     63 H32        -0.5460  -13.1010    3.3300 ha        1 2S9      0.146500
     64 H33        -3.1400  -12.7050   -0.1210 ha        1 2S9      0.146500
     65 H34        -2.9380  -10.2380   -0.0070 ha        1 2S9      0.150500
@<TRIPOS>BOND
     1    1    2 ar  
     2    1    7 ar  
     3    1   33 1   
     4    2    3 1   
     5    2    4 ar  
     6    4    5 ar  
     7    4   34 1   
     8    5    6 ar  
     9    5   35 1   
    10    6    7 ar  
    11    6   36 1   
    12    7    8 1   
    13    8    9 1   
    14    8   14 1   
    15    8   15 1   
    16    9   10 1   
    17    9   13 1   
    18    9   37 1   
    19   10   11 1   
    20   10   38 1   
    21   10   39 1   
    22   11   12 1   
    23   11   40 1   
    24   11   41 1   
    25   12   13 1   
    26   12   42 1   
    27   12   43 1   
    28   13   44 1   
    29   13   45 1   
    30   14   46 1   
    31   15   16 1   
    32   15   18 1   
    33   15   47 1   
    34   16   17 1   
    35   16   48 1   
    36   16   49 1   
    37   17   20 1   
    38   17   50 1   
    39   17   51 1   
    40   18   19 1   
    41   18   52 1   
    42   18   53 1   
    43   19   20 1   
    44   19   54 1   
    45   19   55 1   
    46   20   21 1   
    47   21   22 1   
    48   21   56 1   
    49   21   57 1   
    50   22   23 1   
    51   22   58 1   
    52   22   59 1   
    53   23   24 1   
    54   23   60 1   
    55   23   61 1   
    56   24   25 1   
    57   25   26 ar  
    58   25   32 ar  
    59   26   27 ar  
    60   26   62 1   
    61   27   28 ar  
    62   27   63 1   
    63   28   29 1   
    64   28   31 ar  
    65   29   30 3   
    66   31   32 ar  
    67   31   64 1   
    68   32   65 1   
@<TRIPOS>SUBSTRUCTURE
     1 2S9         1 TEMP              0 ****  ****    0 ROOT
