@<TRIPOS>MOLECULE
2SA
   45    47     1     0     0
SMALL
bcc


@<TRIPOS>ATOM
      1 PA         62.4460   67.6900   39.2900 p5        1 2SA      1.327900
      2 O1A        61.9490   69.1020   39.1660 o         1 2SA     -0.931167
      3 O2A        62.7170   67.1900   40.6780 o         1 2SA     -0.931167
      4 O3A        61.8510   66.6920   38.3150 o         1 2SA     -0.931167
      5 O5'        64.0430   67.8190   38.5970 os        1 2SA     -0.573200
      6 C5'        64.5850   66.6250   38.2020 c3        1 2SA      0.220400
      7 C4'        64.9590   66.6210   36.7010 c3        1 2SA      0.077100
      8 O4'        64.8830   65.2740   36.1790 os        1 2SA     -0.448600
      9 C1'        63.6950   65.1170   35.3770 c3        1 2SA      0.227800
     10 N9         62.9220   63.9650   35.7500 na        1 2SA     -0.282000
     11 C4         62.9010   62.7460   35.0450 ca        1 2SA      0.430800
     12 N3         63.5400   62.3770   33.8890 nb        1 2SA     -0.802000
     13 C2         63.2170   61.1140   33.5170 ca        1 2SA      0.649900
     14 N1         62.3940   60.2040   34.0810 nb        1 2SA     -0.776000
     15 C6         61.7250   60.5590   35.2390 ca        1 2SA      0.754200
     16 N6         60.7750   59.7610   35.8190 nh        1 2SA     -0.774900
     17 C61        60.4590   58.3700   35.4960 c3        1 2SA      0.102500
     18 C62        61.5290   57.3820   36.0740 c         1 2SA      0.901600
     19 C63        60.0910   58.0920   34.0410 c3        1 2SA     -0.169400
     20 C64        58.6530   57.6140   33.8140 c         1 2SA      0.904600
     21 O65        61.7770   57.4770   37.3160 o         1 2SA     -0.864800
     22 O66        62.0710   56.5070   35.3430 o         1 2SA     -0.864800
     23 O67        57.8090   57.5440   34.7590 o         1 2SA     -0.894300
     24 O68        58.3220   57.2990   32.6230 o         1 2SA     -0.894300
     25 C5         61.9890   61.8820   35.7790 ca        1 2SA     -0.229200
     26 N7         61.5060   62.5680   36.9080 nc        1 2SA     -0.579100
     27 C8         62.0730   63.7850   36.8750 cd        1 2SA      0.417700
     28 C2'        62.9230   66.4780   35.4510 c3        1 2SA      0.037100
     29 O2'        62.3970   66.7880   34.1750 oh        1 2SA     -0.614800
     30 C3'        64.0270   67.4830   35.8300 c3        1 2SA      0.128100
     31 O3'        64.7110   68.0030   34.6980 oh        1 2SA     -0.624800
     32 HC51       63.8800   65.7650   38.3920 h1        1 2SA      0.003700
     33 HC52       65.5520   66.4330   38.7610 h1        1 2SA      0.003700
     34 HC4        66.0290   66.9200   36.5480 h1        1 2SA      0.027700
     35 HC1        64.0660   64.9470   34.3200 h2        1 2SA      0.062700
     36 HC2        63.7190   60.7600   32.5930 h5        1 2SA      0.002100
     37 HN6        60.6100   59.9730   36.7830 hn        1 2SA      0.435800
     38 H61        59.5210   58.1630   36.1080 h1        1 2SA      0.081700
     39 H631       60.7790   57.2950   33.6510 hc        1 2SA      0.052700
     40 H632       60.2210   58.9940   33.3930 hc        1 2SA      0.052700
     41 HC8        61.9210   64.6270   37.6010 h5        1 2SA      0.163800
     42 H2'        62.1360   66.4800   36.2730 h1        1 2SA      0.189700
     43 HO2        61.5420   66.3440   34.1350 ho        1 2SA      0.399000
     44 HC3        63.6390   68.3790   36.3820 h1        1 2SA      0.148700
     45 HO3        64.8510   67.2610   34.0980 ho        1 2SA      0.383000
@<TRIPOS>BOND
     1    1    2 1   
     2    1    3 1   
     3    1    4 1   
     4    1    5 1   
     5    5    6 1   
     6    6    7 1   
     7    6   32 1   
     8    6   33 1   
     9    7    8 1   
    10    7   30 1   
    11    7   34 1   
    12    8    9 1   
    13    9   10 1   
    14    9   28 1   
    15    9   35 1   
    16   10   11 1   
    17   10   27 1   
    18   11   12 ar  
    19   11   25 ar  
    20   12   13 ar  
    21   13   14 ar  
    22   13   36 1   
    23   14   15 ar  
    24   15   16 1   
    25   15   25 ar  
    26   16   17 1   
    27   16   37 1   
    28   17   18 1   
    29   17   19 1   
    30   17   38 1   
    31   18   21 1   
    32   18   22 1   
    33   19   20 1   
    34   19   39 1   
    35   19   40 1   
    36   20   23 1   
    37   20   24 1   
    38   25   26 1   
    39   26   27 2   
    40   27   41 1   
    41   28   29 1   
    42   28   30 1   
    43   28   42 1   
    44   29   43 1   
    45   30   31 1   
    46   30   44 1   
    47   31   45 1   
@<TRIPOS>SUBSTRUCTURE
     1 2SA         1 TEMP              0 ****  ****    0 ROOT
