@<TRIPOS>MOLECULE
2SA
   45    41     1     0     0
SMALL
bcc


@<TRIPOS>ATOM
      1 PA         -6.0480    0.1900    2.0530 p3        1 2SA      2.548000
      2 O1A        -7.0180   -0.0610    0.9150 os        1 2SA     -1.175000
      3 O2A        -5.3950    1.5430    1.8700 o         1 2SA     -1.020500
      4 O3A        -6.7990    0.1650    3.3730 o         1 2SA     -1.020500
      5 O5'        -4.9160   -0.9580    2.0570 os        1 2SA     -0.759000
      6 C5'        -3.5620   -0.5790    2.3030 c3        1 2SA      0.032000
      7 C4'        -2.6870   -1.8300    2.3770 c3        1 2SA     -0.076000
      8 O4'        -1.6440   -1.8370    1.1970 os        1 2SA     -0.305000
      9 C1'        -0.2900   -1.5220    1.8450 c3        1 2SA      0.145000
     10 N9          0.3820   -0.4700    1.1140 n3        1 2SA     -0.164000
     11 C4          0.7810   -0.7860   -0.1470 c1        1 2SA      0.063000
     12 N3          0.4440   -1.8170   -0.9820 n1        1 2SA     -0.260000
     13 C2          0.9590   -1.8700   -2.2420 c1        1 2SA     -0.002000
     14 N1          1.8180   -0.8890   -2.6760 n1        1 2SA     -0.267000
     15 C6          2.1490    0.1190   -1.8620 c1        1 2SA      0.247000
     16 N6          3.1790    0.9920   -2.3380 n2        1 2SA     -0.215000
     17 C61         3.1180    1.5200   -3.6860 c3        1 2SA     -0.047000
     18 C62         4.2470    0.9790   -4.4810 c2        1 2SA      0.315000
     19 C63         3.2150    3.0380   -3.6400 c3        1 2SA     -0.196000
     20 C64         2.8090    3.6220   -5.0060 c2        1 2SA      0.324000
     21 O65         4.1660   -0.1610   -4.9870 o         1 2SA     -0.600500
     22 O66         5.3050    1.6370   -4.5900 o         1 2SA     -0.600500
     23 O67         1.6550    3.4000   -5.4650 o         1 2SA     -0.617500
     24 O68         3.5900    4.4150   -5.6120 o         1 2SA     -0.617500
     25 C5          1.6210    0.1740   -0.5700 c1        1 2SA     -0.252000
     26 N7          1.7470    1.0890    0.4260 n1        1 2SA     -0.140000
     27 C8          0.9810    0.6860    1.4620 c1        1 2SA     -0.075000
     28 C2'        -0.5790   -1.1170    3.0690 c3        1 2SA     -0.081000
     29 O2'         0.4560   -1.5380    3.9850 oh        1 2SA     -0.371000
     30 C3'        -1.9790   -1.8200    3.4550 c3        1 2SA      0.151000
     31 O3'        -1.7450   -3.1890    3.9120 oh        1 2SA     -0.719000
     32 HC51       -3.2490   -0.0070    1.5810 h1        1 2SA      0.069500
     33 HC52       -3.5080   -0.1000    3.1390 h1        1 2SA      0.069500
     34 HC4        -3.2370   -2.6290    2.3450 h1        1 2SA      0.092000
     35 HC1         0.2720   -2.3340    1.8770 h2        1 2SA      0.118000
     36 HC2         0.7170   -2.6050   -2.8360 ha        1 2SA      0.141000
     37 HN6         3.8660    1.2350   -1.7810 hn        1 2SA      0.235000
     38 H61         2.2740    1.2600   -4.1010 h1        1 2SA      0.146000
     39 H631        4.1340    3.2990   -3.4330 hc        1 2SA      0.069500
     40 H632        2.6210    3.3790   -2.9540 hc        1 2SA      0.069500
     41 HC8         0.9030    1.1390    2.3360 DU        1 2SA      0.192000
     42 H2'        -0.6740   -0.1350    3.0900 h1        1 2SA      0.071000
     43 HO2         0.4150   -1.0470    4.7230 ho        1 2SA      0.228000
     44 HC3        -2.4370   -1.3000    4.1570 h1        1 2SA     -0.022000
     45 HO3        -2.0600   -3.2840    4.7280 ho        1 2SA      0.276000
@<TRIPOS>BOND
     1    1    3 1   
     2    1    4 1   
     3    1    5 1   
     4    5    6 1   
     5    6    7 1   
     6    6   32 1   
     7    6   33 1   
     8    7    8 1   
     9    7   30 1   
    10    7   34 1   
    11    8    9 1   
    12    9   10 1   
    13    9   28 1   
    14    9   35 1   
    15   10   11 1   
    16   10   27 1   
    17   11   25 1   
    18   12   13 1   
    19   13   36 1   
    20   14   15 1   
    21   15   25 1   
    22   16   17 1   
    23   16   37 1   
    24   17   18 1   
    25   17   19 1   
    26   17   38 1   
    27   18   21 1   
    28   18   22 1   
    29   19   20 1   
    30   19   39 1   
    31   19   40 1   
    32   20   23 1   
    33   20   24 1   
    34   26   27 1   
    35   28   29 1   
    36   28   30 1   
    37   28   42 1   
    38   29   43 1   
    39   30   31 1   
    40   30   44 1   
    41   31   45 1   
@<TRIPOS>SUBSTRUCTURE
     1 2SA         1 TEMP              0 ****  ****    0 ROOT
