@<TRIPOS>MOLECULE
2SB
   37    39     1     0     0
SMALL
bcc


@<TRIPOS>ATOM
      1 C1          0.0000    0.0000    0.0000 ca        1 2SB     -0.250000
      2 N1         -0.0830   -0.8970   -2.2570 nz        1 2SB      0.842000
      3 O1         -0.0120    1.7150   -2.7470 o         1 2SB     -0.153000
      4 Br1        -4.7760    9.2960   -1.3780 br        1 2SB      0.181000
      5 C2         -0.7530   -0.0010   -1.3050 c3        1 2SB     -0.207000
      6 N2         -1.6730    2.2940   -1.3940 ny        1 2SB      0.794000
      7 O2         -2.6730    9.6550   -3.5540 oh        1 2SB     -0.225000
      8 C3         -0.7850    1.3970   -1.8680 c2        1 2SB      0.076000
      9 N3         -1.7020    3.5940   -1.9180 n2        1 2SB     -0.397000
     10 C4         -2.5570    4.4570   -1.4610 c2        1 2SB     -0.235000
     11 C5         -2.5880    5.8240   -2.0120 c3        1 2SB     -0.181000
     12 C6          1.3830    0.0000    0.0000 ca        1 2SB     -0.078000
     13 C7          2.0740    0.0000    1.1970 ca        1 2SB     -0.050000
     14 C8          1.3830    0.0010    2.3940 ca        1 2SB     -0.008000
     15 C9          0.0010    0.0010    2.3940 ca        1 2SB     -0.050000
     16 C10        -0.6910    0.0060    1.1960 ca        1 2SB     -0.078000
     17 C11        -3.5080    6.7560   -1.5220 c2        1 2SB      0.114000
     18 C12        -3.5330    8.0330   -2.0390 c2        1 2SB     -0.257000
     19 C13        -2.6450    8.3950   -3.0470 c2        1 2SB      0.302000
     20 C14        -1.7300    7.4720   -3.5350 c2        1 2SB     -0.179000
     21 C15        -1.6940    6.1950   -3.0190 c2        1 2SB      0.022000
     22 HN1         0.3780   -1.6310   -1.7570 hn        1 2SB      0.043333
     23 HN1A        0.5900   -0.3790   -2.7860 hn        1 2SB      0.043333
     24 H2         -1.7670   -0.3450   -1.1370 hx        1 2SB      0.142000
     25 HN2        -2.5840    1.9030   -1.5330 hn        1 2SB      0.037500
     26 HO2        -2.0150   10.1800   -3.1290 ho        1 2SB      0.253000
     27 H4         -3.0130    4.7250   -2.4060 DU        1 2SB      0.339000
     28 H6          1.9240   -0.0390   -0.9380 ha        1 2SB      0.105500
     29 H7          3.1580   -0.0000    1.1970 ha        1 2SB      0.141500
     30 H8          1.9240   -0.0010    3.3320 ha        1 2SB      0.141000
     31 H9         -0.5410    0.0060    3.3320 ha        1 2SB      0.141500
     32 H10        -1.7740    0.0060    1.1970 ha        1 2SB      0.105500
     33 H11        -4.1680    6.4890   -0.7060 ha        1 2SB      0.148000
     34 H14        -1.0440    7.7570   -4.3230 ha        1 2SB      0.156000
     35 H15        -0.9350    5.4970   -3.3530 ha        1 2SB      0.138000
     36 H13        -0.7620   -1.2920   -2.8770 hn        1 2SB      0.043333
     37 H22        -1.5020    2.3820   -0.4120 hn        1 2SB      0.037500
@<TRIPOS>BOND
     1    1    5 1   
     2    1   12 1   
     3    1   16 1   
     4    2    5 1   
     5    2   22 1   
     6    2   23 1   
     7    2   36 1   
     8    3    8 1   
     9    4   18 1   
    10    5    8 1   
    11    5   24 1   
    12    6    8 1   
    13    6    9 1   
    14    6   25 1   
    15    6   37 1   
    16    7   19 1   
    17    7   26 1   
    18    9   10 1   
    19   10   11 1   
    20   10   27 1   
    21   11   17 1   
    22   11   21 1   
    23   11   27 1   
    24   12   13 1   
    25   12   28 1   
    26   13   14 1   
    27   13   29 1   
    28   14   15 1   
    29   14   30 1   
    30   15   16 1   
    31   15   31 1   
    32   16   32 1   
    33   17   18 1   
    34   17   33 1   
    35   18   19 1   
    36   19   20 1   
    37   20   21 1   
    38   20   34 1   
    39   21   35 1   
@<TRIPOS>SUBSTRUCTURE
     1 2SB         1 TEMP              0 ****  ****    0 ROOT
