@<TRIPOS>MOLECULE
2SB
   37    37     1     0     0
SMALL
bcc


@<TRIPOS>ATOM
      1 C1         82.6350 -420.6460  156.3980 ca        1 2SB     -0.201000
      2 N1         82.7860 -418.7870  158.0060 n4        1 2SB     -0.064000
      3 O1         85.0610 -418.2980  156.6730 o         1 2SB     -0.370000
      4 BR1      -126.3880  625.3720 -234.2280 br        1 2SB      0.207000
      5 C2         83.4960 -419.9850  157.4230 c3        1 2SB     -0.048000
      6 N2         85.7250 -420.4840  156.4370 n         1 2SB     -0.374000
      7 O2       -124.3240  623.1610 -234.7830 oh        1 2SB     -0.125000
      8 C3         84.8430 -419.5220  156.7980 c2        1 2SB      0.296000
      9 N3       -123.1430  625.9750 -229.1910 n1        1 2SB      0.108000
     10 C4       -123.6680  625.1960 -229.8740 c1        1 2SB     -0.190000
     11 C5       -124.3300  624.2200 -230.7180 c3        1 2SB     -0.029000
     12 C6         82.5200 -420.1000  155.1120 ca        1 2SB     -0.100000
     13 C7         81.7230 -420.7310  154.1600 ca        1 2SB     -0.116500
     14 C8         81.0420 -421.9060  154.4850 ca        1 2SB     -0.070000
     15 C9         81.1570 -422.4510  155.7660 ca        1 2SB     -0.116500
     16 C10        81.9500 -421.8230  156.7250 ca        1 2SB     -0.100000
     17 C11      -125.1900  624.8820 -231.7360 c2        1 2SB      0.046000
     18 C12      -125.2090  624.5220 -233.0510 c2        1 2SB     -0.274000
     19 C13      -124.2940  623.4970 -233.5010 c2        1 2SB      0.348000
     20 C14      -123.3790  622.8830 -232.5810 c2        1 2SB     -0.281000
     21 C15      -123.3600  623.2380 -231.2730 c2        1 2SB      0.060000
     22 HN1        82.9320 -417.9780  157.3800 hn        1 2SB      0.263667
     23 HN1A       81.7850 -418.9840  158.0890 hn        1 2SB      0.263667
     24 H2         83.7040 -420.6900  158.2850 hx        1 2SB      0.162000
     25 HN2        85.4870 -421.4450  156.4690 hn        1 2SB      0.259000
     26 HO2      -123.6600  622.4680 -234.9950 ho        1 2SB      0.296000
     27 H4       -125.0460  623.6160 -230.0450 hc        1 2SB      0.224000
     28 H6         83.0700 -419.1810  154.8490 ha        1 2SB      0.147000
     29 H7         81.6350 -420.3040  153.1470 ha        1 2SB      0.165500
     30 H8         80.4150 -422.4060  153.7280 ha        1 2SB      0.166000
     31 H9         80.6230 -423.3810  156.0200 ha        1 2SB      0.165500
     32 H10        82.0410 -422.2640  157.7300 ha        1 2SB      0.147000
     33 H11      -125.8510  625.6890 -231.3530 ha        1 2SB      0.211000
     34 H14      -122.6750  622.1220 -232.9700 ha        1 2SB      0.197000
     35 H15      -122.6370  622.7920 -230.5620 ha        1 2SB      0.203000
     36 H13        83.1780 -418.5560  158.9220 hn        1 2SB      0.263667
     37 H22        86.5850 -420.2160  156.0130 hn        1 2SB      0.259000
@<TRIPOS>BOND
     1    1    5 1   
     2    1   12 1   
     3    1   16 1   
     4    2    5 1   
     5    2   22 1   
     6    2   23 1   
     7    2   36 1   
     8    3    8 1   
     9    4   18 1   
    10    5    8 1   
    11    5   24 1   
    12    6    8 1   
    13    6   25 1   
    14    6   37 1   
    15    7   19 1   
    16    7   26 1   
    17    9   10 1   
    18   10   11 1   
    19   11   17 1   
    20   11   21 1   
    21   11   27 1   
    22   12   13 1   
    23   12   28 1   
    24   13   14 1   
    25   13   29 1   
    26   14   15 1   
    27   14   30 1   
    28   15   16 1   
    29   15   31 1   
    30   16   32 1   
    31   17   18 1   
    32   17   33 1   
    33   18   19 1   
    34   19   20 1   
    35   20   21 1   
    36   20   34 1   
    37   21   35 1   
@<TRIPOS>SUBSTRUCTURE
     1 2SB         1 TEMP              0 ****  ****    0 ROOT
