@<TRIPOS>MOLECULE
2SB
   35    31     1     0     0
SMALL
bcc


@<TRIPOS>ATOM
      1 C1         -0.7830   -2.8910    1.0980 c1        1 2SB     -0.133000
      2 N1         -1.6360   -0.6710    1.0060 n3        1 2SB     -0.331000
      3 O1          0.8130   -1.9800   -0.7930 o         1 2SB     -0.351000
      4 BR1         3.5900    4.3240   -3.6850 br        1 2SB      0.062000
      5 C2         -0.4500   -1.4250    1.1280 c3        1 2SB      0.016000
      6 N2          1.0060    0.1910   -0.1700 n         1 2SB     -0.314000
      7 O2          0.6680    5.3820   -3.8410 oh        1 2SB     -0.239000
      8 C3          0.4790   -1.1040   -0.0270 c2        1 2SB      0.340000
      9 N3          1.3460    0.9380    0.9600 n2        1 2SB     -0.021000
     10 C4          1.4800    2.2360    0.8660 c1        1 2SB     -0.127000
     11 C5          1.2640    2.9320   -0.4810 c1        1 2SB     -0.122000
     12 C6         -0.5130   -3.4760    2.3400 c1        1 2SB     -0.122500
     13 C7         -0.9850   -4.7580    2.6280 c1        1 2SB     -0.122500
     14 C8         -1.7280   -5.4590    1.6760 c1        1 2SB     -0.122500
     15 C9         -1.9990   -4.8760    0.4370 c1        1 2SB     -0.122500
     16 C10        -1.5210   -3.5830    0.1500 c1        1 2SB     -0.119000
     17 C11         2.2960    3.1250   -1.3810 c2        1 2SB     -0.044000
     18 C12         2.1060    3.9500   -2.4930 c2        1 2SB     -0.259000
     19 C13         0.8760    4.5760   -2.6940 c2        1 2SB      0.123000
     20 C14        -0.1540    4.3810   -1.7930 c1        1 2SB     -0.157000
     21 C15         0.0360    3.5570   -0.6830 c1        1 2SB     -0.076000
     22 HN1        -2.3390   -1.2280    0.6350 hn        1 2SB      0.158500
     23 HN1A       -1.8870   -0.3720    1.8250 hn        1 2SB      0.158500
     24 H2          0.0210   -1.1910    2.0360 h1        1 2SB      0.140000
     25 HN2         1.1730    0.5170   -0.9880 hn        1 2SB      0.228000
     26 HO2         0.7240    6.2270   -3.6170 ho        1 2SB      0.234000
     27 H4          1.7150    2.7570    1.6470 ha        1 2SB      0.170000
     28 H6          0.0200   -2.9760    3.0210 ha        1 2SB      0.135250
     29 H7         -0.8020   -5.1500    3.4650 ha        1 2SB      0.135250
     30 H8         -2.0750   -6.3990    1.8880 ha        1 2SB      0.135250
     31 H9         -2.5450   -5.3890   -0.2650 ha        1 2SB      0.135250
     32 H10        -1.7140   -3.1590   -0.7470 ha        1 2SB      0.148000
     33 H11         3.1970    2.7740   -1.1770 ha        1 2SB      0.153000
     34 H14        -0.9820    4.8020   -1.9290 ha        1 2SB      0.162000
     35 H15        -0.6950    3.4180   -0.0430 ha        1 2SB      0.149000
@<TRIPOS>BOND
     1    1    5 1   
     2    1   16 1   
     3    2    5 1   
     4    2   22 1   
     5    2   23 1   
     6    3    8 1   
     7    4   18 1   
     8    5    8 1   
     9    5   24 1   
    10    6    8 1   
    11    6    9 1   
    12    6   25 1   
    13    7   19 1   
    14    7   26 1   
    15    9   10 1   
    16   10   27 1   
    17   11   17 1   
    18   11   21 1   
    19   12   13 1   
    20   12   28 1   
    21   13   29 1   
    22   14   15 1   
    23   14   30 1   
    24   15   31 1   
    25   16   32 1   
    26   17   18 1   
    27   17   33 1   
    28   18   19 1   
    29   19   20 1   
    30   20   34 1   
    31   21   35 1   
@<TRIPOS>SUBSTRUCTURE
     1 2SB         1 TEMP              0 ****  ****    0 ROOT
