@<TRIPOS>MOLECULE
2SB
   35    36     1     0     0
SMALL
bcc


@<TRIPOS>ATOM
      1 C1         -5.0350    0.2380   -0.3670 ca        1 2SB     -0.104300
      2 N1         -5.8100   -1.9300   -1.2270 n3        1 2SB     -0.880800
      3 O1         -3.2470   -2.7810   -0.5120 o         1 2SB     -0.555100
      4 BR1         4.7090    1.7230    0.7880 br        1 2SB     -0.086100
      5 C2         -4.7290   -0.9700   -1.2140 c3        1 2SB      0.155800
      6 N2         -2.2980   -0.6560   -0.7380 n         1 2SB     -0.328900
      7 O2          5.1590   -1.4330    1.1790 oh        1 2SB     -0.487100
      8 C3         -3.3650   -1.5740   -0.7650 c         1 2SB      0.635100
      9 N3         -1.0640   -1.0030   -0.3760 n2        1 2SB     -0.424300
     10 C4         -0.1290   -0.0990   -0.2290 ce        1 2SB      0.366800
     11 C5          1.2420   -0.4600    0.1370 ca        1 2SB     -0.156900
     12 C6         -5.2580    0.1090    1.0080 ca        1 2SB     -0.118000
     13 C7         -5.5450    1.2350    1.7780 ca        1 2SB     -0.127500
     14 C8         -5.6130    2.4930    1.1790 ca        1 2SB     -0.120000
     15 C9         -5.3960    2.6240   -0.1920 ca        1 2SB     -0.127500
     16 C10        -5.1100    1.5000   -0.9660 ca        1 2SB     -0.118000
     17 C11         2.1790    0.5710    0.2730 ca        1 2SB     -0.056000
     18 C12         3.5040    0.2970    0.6210 ca        1 2SB     -0.120900
     19 C13         3.8920   -1.0380    0.8350 ca        1 2SB      0.166100
     20 C14         2.9540   -2.0790    0.6990 ca        1 2SB     -0.166000
     21 C15         1.6430   -1.7890    0.3530 ca        1 2SB     -0.048000
     22 HN1        -5.5020   -2.7890   -1.6450 hn        1 2SB      0.366300
     23 HN1A       -6.1380   -2.1170   -0.3000 hn        1 2SB      0.366300
     24 H2         -4.5830   -0.6470   -2.2920 h1        1 2SB      0.087700
     25 HN2        -2.5460    0.3150   -0.8310 hn        1 2SB      0.301500
     26 HO2         5.7230   -0.6450    1.2460 ho        1 2SB      0.432000
     27 H4         -0.2900    0.9940   -0.3680 h4        1 2SB     -0.011200
     28 H6         -5.2020   -0.8820    1.4850 ha        1 2SB      0.138500
     29 H7         -5.7190    1.1280    2.8590 ha        1 2SB      0.138000
     30 H8         -5.8420    3.3810    1.7880 ha        1 2SB      0.137000
     31 H9         -5.4570    3.6150   -0.6670 ha        1 2SB      0.138000
     32 H10        -4.9560    1.6070   -2.0510 ha        1 2SB      0.138500
     33 H11         1.8660    1.6150    0.1040 ha        1 2SB      0.145000
     34 H14         3.2820   -3.1150    0.8720 ha        1 2SB      0.160000
     35 H15         0.9170   -2.6130    0.2500 ha        1 2SB      0.165000
@<TRIPOS>BOND
     1    1    5 1   
     2    1   12 ar  
     3    1   16 ar  
     4    2    5 1   
     5    2   22 1   
     6    2   23 1   
     7    3    8 2   
     8    4   18 1   
     9    5    8 1   
    10    5   24 1   
    11    6    8 1   
    12    6    9 1   
    13    6   25 1   
    14    7   19 1   
    15    7   26 1   
    16    9   10 2   
    17   10   11 1   
    18   10   27 1   
    19   11   17 ar  
    20   11   21 ar  
    21   12   13 ar  
    22   12   28 1   
    23   13   14 ar  
    24   13   29 1   
    25   14   15 ar  
    26   14   30 1   
    27   15   16 ar  
    28   15   31 1   
    29   16   32 1   
    30   17   18 ar  
    31   17   33 1   
    32   18   19 ar  
    33   19   20 ar  
    34   20   21 ar  
    35   20   34 1   
    36   21   35 1   
@<TRIPOS>SUBSTRUCTURE
     1 2SB         1 TEMP              0 ****  ****    0 ROOT
