@<TRIPOS>MOLECULE
2SC
   42    45     1     0     0
SMALL
bcc


@<TRIPOS>ATOM
      1 C01         2.0900    2.9730    0.0700 cc        1 2SC     -0.284800
      2 C02         1.7460    1.5980    0.0030 cd        1 2SC      0.397500
      3 N03         0.3010    1.5910   -0.1530 na        1 2SC      0.003200
      4 N04        -0.2090    2.8360   -0.1920 nd        1 2SC     -0.587100
      5 C05         0.8450    3.6820   -0.0550 cc        1 2SC      0.420500
      6 N06         2.5050    0.4570    0.0720 nd        1 2SC     -0.668000
      7 C07         1.8510   -0.7020   -0.0280 cc        1 2SC      0.535800
      8 C08         0.4300   -0.7980   -0.2060 cc        1 2SC     -0.387300
      9 C09        -0.3620    0.3570   -0.2850 cd        1 2SC      0.288300
     10 N10        -1.7310    0.3220   -0.5520 nh        1 2SC     -0.743600
     11 C11         2.6070   -1.9690    0.0400 ca        1 2SC     -0.155500
     12 C12        -2.4590   -0.8870   -0.2290 c3        1 2SC      0.253100
     13 C13        -3.9370   -0.6720   -0.1470 ca        1 2SC     -0.234600
     14 C14        -4.6510   -1.0700    1.0030 ca        1 2SC      0.411200
     15 N15        -5.9840   -0.9410    1.1300 nb        1 2SC     -0.661000
     16 C16        -6.6570   -0.3950    0.0980 ca        1 2SC      0.404200
     17 C17        -6.0370    0.0360   -1.0900 ca        1 2SC     -0.245300
     18 C18        -4.6540   -0.1080   -1.2100 ca        1 2SC     -0.076000
     19 C19         3.8220   -2.1110   -0.6410 ca        1 2SC     -0.098500
     20 C20         4.5170   -3.3190   -0.5800 ca        1 2SC     -0.137000
     21 C21         4.0090   -4.3840    0.1640 ca        1 2SC     -0.116000
     22 C22         2.8030   -4.2410    0.8500 ca        1 2SC     -0.137000
     23 C23         2.1010   -3.0390    0.7900 ca        1 2SC     -0.098500
     24 C24         3.4410    3.5270    0.2350 c3        1 2SC      0.220600
     25 O25         3.3450    4.9470    0.2680 oh        1 2SC     -0.604800
     26 H05         0.7220    4.7690   -0.0440 h4        1 2SC      0.067800
     27 H08        -0.0230   -1.7910   -0.3130 ha        1 2SC      0.161000
     28 HN10       -2.2440    1.1730   -0.4470 hn        1 2SC      0.445800
     29 H121       -2.2480   -1.6400   -1.0470 h1        1 2SC      0.057200
     30 H122       -2.0880   -1.3310    0.7430 h1        1 2SC      0.057200
     31 H14        -4.1280   -1.5170    1.8680 h4        1 2SC      0.026100
     32 H16        -7.7490   -0.3000    0.2340 h4        1 2SC      0.027100
     33 H17        -6.6320    0.4740   -1.9010 ha        1 2SC      0.149000
     34 H18        -4.1340    0.2120   -2.1250 ha        1 2SC      0.151000
     35 H19         4.2310   -1.2700   -1.2220 ha        1 2SC      0.141500
     36 H20         5.4700   -3.4280   -1.1180 ha        1 2SC      0.135000
     37 H21         4.5600   -5.3340    0.2120 ha        1 2SC      0.133000
     38 H22         2.4050   -5.0770    1.4430 ha        1 2SC      0.135000
     39 H23         1.1550   -2.9250    1.3410 ha        1 2SC      0.141500
     40 H241        3.9000    3.1560    1.1950 h1        1 2SC      0.035700
     41 H242        4.0990    3.2130   -0.6230 h1        1 2SC      0.035700
     42 HO25        4.2450    5.2700    0.3930 ho        1 2SC      0.402000
@<TRIPOS>BOND
     1    1    2 2   
     2    1    5 1   
     3    1   24 1   
     4    2    3 1   
     5    2    6 1   
     6    3    4 1   
     7    3    9 1   
     8    4    5 2   
     9    5   26 1   
    10    6    7 2   
    11    7    8 1   
    12    7   11 1   
    13    8    9 2   
    14    8   27 1   
    15    9   10 1   
    16   10   12 1   
    17   10   28 1   
    18   11   19 ar  
    19   11   23 ar  
    20   12   13 1   
    21   12   29 1   
    22   12   30 1   
    23   13   14 ar  
    24   13   18 ar  
    25   14   15 ar  
    26   14   31 1   
    27   15   16 ar  
    28   16   17 ar  
    29   16   32 1   
    30   17   18 ar  
    31   17   33 1   
    32   18   34 1   
    33   19   20 ar  
    34   19   35 1   
    35   20   21 ar  
    36   20   36 1   
    37   21   22 ar  
    38   21   37 1   
    39   22   23 ar  
    40   22   38 1   
    41   23   39 1   
    42   24   25 1   
    43   24   40 1   
    44   24   41 1   
    45   25   42 1   
@<TRIPOS>SUBSTRUCTURE
     1 2SC         1 TEMP              0 ****  ****    0 ROOT
