@<TRIPOS>MOLECULE
2SC
   43    46     1     0     0
SMALL
bcc


@<TRIPOS>ATOM
      1 C01        -0.1040    0.1310   -0.1090 cc        1 2SC     -0.205800
      2 C02         1.3100    0.0900   -0.1360 cd        1 2SC      0.372500
      3 N03         1.6910    0.0740    1.2780 na        1 2SC     -0.002800
      4 N04         0.6280    0.0980    2.0970 nd        1 2SC     -0.592100
      5 C05        -0.4650    0.1340    1.2880 cc        1 2SC      0.448500
      6 N06         2.2340    0.0720   -1.1470 nd        1 2SC     -0.572000
      7 C07         3.5190    0.0380   -0.8120 cc        1 2SC      0.510800
      8 C08         3.9780    0.0140    0.5710 cc        1 2SC     -0.217300
      9 C09         3.0520    0.0290    1.5950 cd        1 2SC      0.070300
     10 N10         3.4060   -0.0030    3.0280 n4        1 2SC     -0.644400
     11 C11         4.5620    0.0110   -1.8510 ca        1 2SC     -0.193500
     12 C12         4.8840   -0.1070    3.2940 c3        1 2SC      0.190100
     13 C13         5.1400   -0.1480    4.7550 ca        1 2SC     -0.326600
     14 C14         5.3100    1.0480    5.4860 ca        1 2SC      0.437200
     15 N15         5.5850    1.0760    6.8010 nb        1 2SC     -0.639000
     16 C16         5.7090   -0.1040    7.4400 ca        1 2SC      0.454200
     17 C17         5.5630   -1.3520    6.7970 ca        1 2SC     -0.234300
     18 C18         5.2740   -1.3700    5.4350 ca        1 2SC     -0.055000
     19 C19         4.4100   -0.7950   -2.9860 ca        1 2SC     -0.094000
     20 C20         5.4080   -0.8160   -3.9600 ca        1 2SC     -0.126000
     21 C21         6.5490   -0.0280   -3.8130 ca        1 2SC     -0.090000
     22 C22         6.6950    0.7860   -2.6870 ca        1 2SC     -0.126000
     23 C23         5.7070    0.8080   -1.7070 ca        1 2SC     -0.094000
     24 C24        -1.0170    0.1670   -1.2650 c3        1 2SC      0.202600
     25 O25        -2.3470    0.1800   -0.7620 oh        1 2SC     -0.603800
     26 H05        -1.4880    0.1620    1.6850 h4        1 2SC      0.097800
     27 H08         5.0640   -0.0280    0.7470 ha        1 2SC      0.181000
     28 HN10        3.0440    0.8540    3.4770 hn        1 2SC      0.471800
     29 H121        5.2590   -1.0450    2.7910 hx        1 2SC      0.112200
     30 H122        5.3810    0.7920    2.8260 hx        1 2SC      0.112200
     31 H14         5.2350    2.0370    4.9940 h4        1 2SC      0.032100
     32 H16         5.9400   -0.0440    8.5220 h4        1 2SC      0.056100
     33 H17         5.6820   -2.2870    7.3650 ha        1 2SC      0.175000
     34 H18         5.1670   -2.3260    4.9000 ha        1 2SC      0.150000
     35 H19         3.5060   -1.4120   -3.1140 ha        1 2SC      0.139000
     36 H20         5.2880   -1.4520   -4.8500 ha        1 2SC      0.151500
     37 H21         7.3330   -0.0430   -4.5860 ha        1 2SC      0.153000
     38 H22         7.5900    1.4180   -2.5780 ha        1 2SC      0.151500
     39 H23         5.8180    1.4700   -0.8360 ha        1 2SC      0.139000
     40 H241       -0.8600   -0.7420   -1.9110 h1        1 2SC      0.056700
     41 H242       -0.8270    1.0910   -1.8800 h1        1 2SC      0.056700
     42 HO25       -2.9290    0.2280   -1.5320 ho        1 2SC      0.425000
     43 H102        2.9310   -0.8050    3.4710 hn        1 2SC      0.471800
@<TRIPOS>BOND
     1    1    2 2   
     2    1    5 1   
     3    1   24 1   
     4    2    3 1   
     5    2    6 1   
     6    3    4 1   
     7    3    9 1   
     8    4    5 2   
     9    5   26 1   
    10    6    7 2   
    11    7    8 1   
    12    7   11 1   
    13    8    9 2   
    14    8   27 1   
    15    9   10 1   
    16   10   12 1   
    17   10   28 1   
    18   10   43 1   
    19   11   19 ar  
    20   11   23 ar  
    21   12   13 1   
    22   12   29 1   
    23   12   30 1   
    24   13   14 ar  
    25   13   18 ar  
    26   14   15 ar  
    27   14   31 1   
    28   15   16 ar  
    29   16   17 ar  
    30   16   32 1   
    31   17   18 ar  
    32   17   33 1   
    33   18   34 1   
    34   19   20 ar  
    35   19   35 1   
    36   20   21 ar  
    37   20   36 1   
    38   21   22 ar  
    39   21   37 1   
    40   22   23 ar  
    41   22   38 1   
    42   23   39 1   
    43   24   25 1   
    44   24   40 1   
    45   24   41 1   
    46   25   42 1   
@<TRIPOS>SUBSTRUCTURE
     1 2SC         1 TEMP              0 ****  ****    0 ROOT
