@<TRIPOS>MOLECULE
2SC
   42    45     1     0     0
SMALL
bcc


@<TRIPOS>ATOM
      1 C01        -0.0510    0.0740   -0.0190 cc        1 2SC     -0.284800
      2 C02         1.3650    0.0060   -0.0720 cd        1 2SC      0.397500
      3 N03         1.7750   -0.1480    1.3140 na        1 2SC      0.003200
      4 N04         0.7210   -0.1850    2.1510 nd        1 2SC     -0.587100
      5 C05        -0.3850   -0.0500    1.3760 cc        1 2SC      0.420500
      6 N06         2.2490    0.0730   -1.1190 nd        1 2SC     -0.668000
      7 C07         3.5440   -0.0260   -0.8150 cc        1 2SC      0.535800
      8 C08         4.0330   -0.2020    0.5240 cc        1 2SC     -0.387300
      9 C09         3.1460   -0.2800    1.6070 cd        1 2SC      0.288300
     10 N10         3.5610   -0.5440    2.9120 nh        1 2SC     -0.743600
     11 C11         4.5500    0.0390   -1.8940 ca        1 2SC     -0.155500
     12 C12         4.9250   -0.2200    3.2730 c3        1 2SC      0.253100
     13 C13         5.1310   -0.1340    4.7530 ca        1 2SC     -0.234600
     14 C14         5.7110    1.0180    5.3230 ca        1 2SC      0.411200
     15 N15         5.9600    1.1480    6.6390 nb        1 2SC     -0.661000
     16 C16         5.6230    0.1180    7.4400 ca        1 2SC      0.404200
     17 C17         5.0360   -1.0700    6.9680 ca        1 2SC     -0.245300
     18 C18         4.7890   -1.1940    5.6010 ca        1 2SC     -0.076000
     19 C19         4.3460   -0.6430   -3.1000 ca        1 2SC     -0.098500
     20 C20         5.3120   -0.5840   -4.1040 ca        1 2SC     -0.137000
     21 C21         6.4770    0.1600   -3.9150 ca        1 2SC     -0.116000
     22 C22         6.6770    0.8480   -2.7180 ca        1 2SC     -0.137000
     23 C23         5.7180    0.7890   -1.7080 ca        1 2SC     -0.098500
     24 C24        -0.9600    0.2370   -1.1610 c3        1 2SC      0.220600
     25 O25        -2.2980    0.2700   -0.6730 oh        1 2SC     -0.604800
     26 H05        -1.3940   -0.0380    1.7970 h4        1 2SC      0.067800
     27 H08         5.1130   -0.3090    0.6820 ha        1 2SC      0.161000
     28 HN10        2.8870   -0.4390    3.6420 hn        1 2SC      0.445800
     29 H121        5.2480    0.7500    2.7900 h1        1 2SC      0.057200
     30 H122        5.5890   -1.0390    2.8630 h1        1 2SC      0.057200
     31 H14         5.9950    1.8810    4.6940 h4        1 2SC      0.026100
     32 H16         5.8370    0.2580    8.5160 h4        1 2SC      0.027100
     33 H17         4.7810   -1.8800    7.6650 ha        1 2SC      0.149000
     34 H18         4.3360   -2.1110    5.1930 ha        1 2SC      0.151000
     35 H19         3.4250   -1.2240   -3.2570 ha        1 2SC      0.141500
     36 H20         5.1510   -1.1230   -5.0480 ha        1 2SC      0.135000
     37 H21         7.2360    0.2060   -4.7090 ha        1 2SC      0.133000
     38 H22         7.5910    1.4410   -2.5700 ha        1 2SC      0.135000
     39 H23         5.8740    1.3410   -0.7690 ha        1 2SC      0.141500
     40 H241       -0.7330    1.1950   -1.7070 h1        1 2SC      0.035700
     41 H242       -0.8430   -0.6230   -1.8790 h1        1 2SC      0.035700
     42 HO25       -2.8590    0.3940   -1.4460 ho        1 2SC      0.402000
@<TRIPOS>BOND
     1    1    2 2   
     2    1    5 1   
     3    1   24 1   
     4    2    3 1   
     5    2    6 1   
     6    3    4 1   
     7    3    9 1   
     8    4    5 2   
     9    5   26 1   
    10    6    7 2   
    11    7    8 1   
    12    7   11 1   
    13    8    9 2   
    14    8   27 1   
    15    9   10 1   
    16   10   12 1   
    17   10   28 1   
    18   11   19 ar  
    19   11   23 ar  
    20   12   13 1   
    21   12   29 1   
    22   12   30 1   
    23   13   14 ar  
    24   13   18 ar  
    25   14   15 ar  
    26   14   31 1   
    27   15   16 ar  
    28   16   17 ar  
    29   16   32 1   
    30   17   18 ar  
    31   17   33 1   
    32   18   34 1   
    33   19   20 ar  
    34   19   35 1   
    35   20   21 ar  
    36   20   36 1   
    37   21   22 ar  
    38   21   37 1   
    39   22   23 ar  
    40   22   38 1   
    41   23   39 1   
    42   24   25 1   
    43   24   40 1   
    44   24   41 1   
    45   25   42 1   
@<TRIPOS>SUBSTRUCTURE
     1 2SC         1 TEMP              0 ****  ****    0 ROOT
