@<TRIPOS>MOLECULE
2SC
   42    31     1     0     0
SMALL
bcc


@<TRIPOS>ATOM
      1 C01        -3.5290    0.0670   -0.7820 c1        1 2SC     -0.243000
      2 C02        -2.1410    0.0410   -0.8760 c1        1 2SC     -0.019500
      3 N03        -1.6370   -0.0850    0.3870 n1        1 2SC     -0.105000
      4 N04        -2.7080   -0.1370    1.2750 n1        1 2SC     -0.131500
      5 C05        -3.8670   -0.0430    0.5510 c1        1 2SC     -0.019500
      6 N06        -1.2770    0.1370   -1.9650 n1        1 2SC     -0.131500
      7 C07         0.0650    0.1060   -1.7730 c1        1 2SC      0.028500
      8 C08         0.5790   -0.0210   -0.4930 c1        1 2SC     -0.221000
      9 C09        -0.2770   -0.1160    0.5850 c1        1 2SC      0.236000
     10 N10         0.5880    0.0150    1.7580 n2        1 2SC     -0.298000
     11 C11         0.8630    0.2310   -2.9710 c1        1 2SC      0.028500
     12 C12         0.4020   -0.8610    2.9030 c3        1 2SC      0.007000
     13 C13         1.3730   -0.4770    3.9890 c1        1 2SC     -0.162000
     14 C14         0.9940    0.4270    4.9730 c1        1 2SC     -0.058000
     15 N15         1.8610    0.7490    5.9750 n1        1 2SC     -0.136000
     16 C16         3.0970    0.1850    6.0120 c1        1 2SC     -0.120000
     17 C17         3.4800   -0.7210    5.0270 c1        1 2SC     -0.120000
     18 C18         2.6120   -1.0430    4.0250 c1        1 2SC     -0.078000
     19 C19         1.0630   -0.8810   -3.7760 c1        1 2SC     -0.120000
     20 C20         1.6180   -0.7310   -5.0500 c1        1 2SC     -0.120000
     21 C21         1.9680    0.5320   -5.5090 c1        1 2SC     -0.120000
     22 C22         1.7670    1.6460   -4.7020 c1        1 2SC     -0.120000
     23 C23         1.2150    1.4960   -3.4330 c1        1 2SC     -0.221000
     24 C24        -4.5660   -0.0750   -1.9430 c2        1 2SC      0.059000
     25 O25        -5.3920    1.1030   -1.9950 oh        1 2SC     -0.329000
     26 H05        -4.7600   -0.0650    0.9070 DU        1 2SC      0.191000
     27 H08         1.5630   -0.0440   -0.3520 ha        1 2SC      0.148500
     28 HN10        1.2670    0.6340    1.7600 hn        1 2SC      0.225000
     29 H121       -0.5150   -0.7720    3.2370 h1        1 2SC      0.113500
     30 H122        0.5610   -1.7830    2.6360 h1        1 2SC      0.113500
     31 H14         0.1000    0.8340    4.9470 ha        1 2SC      0.169000
     32 H16         3.7110    0.4150    6.7220 ha        1 2SC      0.144333
     33 H17         4.3770   -1.1300    5.0530 ha        1 2SC      0.144333
     34 H18         2.8780   -1.6770    3.3350 ha        1 2SC      0.144000
     35 H19         0.8130   -1.7830   -3.4470 ha        1 2SC      0.144333
     36 H20         1.7600   -1.5180   -5.6190 ha        1 2SC      0.144333
     37 H21         2.3570    0.6380   -6.4030 ha        1 2SC      0.144333
     38 H22         2.0140    2.5350   -5.0260 ha        1 2SC      0.144333
     39 H23         1.0720    2.2880   -2.8610 ha        1 2SC      0.148500
     40 H241       -4.0850   -0.1800   -2.8070 h4        1 2SC      0.097500
     41 H242       -5.1340   -0.8690   -1.7830 h4        1 2SC      0.097500
     42 HO25       -6.1320    0.9340   -2.4910 ho        1 2SC      0.200000
@<TRIPOS>BOND
     1    1    2 1   
     2    1    5 1   
     3    2    6 1   
     4    3    9 1   
     5    4    5 1   
     6    7    8 1   
     7    8   27 1   
     8   10   12 1   
     9   10   28 1   
    10   11   23 1   
    11   12   13 1   
    12   12   29 1   
    13   12   30 1   
    14   13   18 1   
    15   14   15 1   
    16   14   31 1   
    17   16   17 1   
    18   16   32 1   
    19   17   33 1   
    20   18   34 1   
    21   19   20 1   
    22   19   35 1   
    23   20   36 1   
    24   21   22 1   
    25   21   37 1   
    26   22   38 1   
    27   23   39 1   
    28   24   25 1   
    29   24   40 1   
    30   24   41 1   
    31   25   42 1   
@<TRIPOS>SUBSTRUCTURE
     1 2SC         1 TEMP              0 ****  ****    0 ROOT
