@<TRIPOS>MOLECULE
2SD
   50    51     1     0     0
SMALL
bcc


@<TRIPOS>ATOM
      1 O8          0.9720   -0.0970   -1.5600 oh        1 2SD     -0.606800
      2 C8          2.0960    0.0470   -0.7140 c3        1 2SD      0.132100
      3 C9          1.7230   -0.2090    0.7540 c3        1 2SD      0.066100
      4 O9          1.4090   -1.5910    0.8330 oh        1 2SD     -0.603800
      5 C10         2.9210    0.1240    1.6590 c3        1 2SD      0.093100
      6 O10         4.0180   -0.7370    1.4170 oh        1 2SD     -0.582800
      7 C11         3.3630    1.5630    1.3830 c3        1 2SD      0.107100
      8 C12         4.6400    1.9410    2.1430 c3        1 2SD      0.137400
      9 O12         5.0000    3.2670    1.8200 oh        1 2SD     -0.602800
     10 O11         3.6750    1.7840    0.0000 os        1 2SD     -0.428600
     11 C7          2.6480    1.4700   -0.9100 c3        1 2SD      0.336900
     12 O4          1.6300    2.4290   -0.6370 os        1 2SD     -0.445600
     13 C4          1.6040    3.5620   -1.4990 c3        1 2SD      0.098100
     14 C3          2.1070    4.8090   -0.7440 c3        1 2SD      0.107100
     15 O3          3.4270    4.6980   -0.2840 oh        1 2SD     -0.578800
     16 C2          1.1660    5.1120    0.4380 c3        1 2SD      0.108100
     17 O2          1.5140    6.2910    1.1290 oh        1 2SD     -0.622800
     18 C1         -0.2570    5.3330   -0.1150 c3        1 2SD     -0.059100
     19 SAI        -1.4120    5.6210    1.1340 s6        1 2SD      1.364900
     20 OAM        -1.2910    4.8150    2.2420 o         1 2SD     -0.539300
     21 OAE        -1.7780    6.9470    1.1990 o         1 2SD     -0.539300
     22 NAJ        -2.9600    4.8990    0.3390 nz        1 2SD     -0.798500
     23 O5         -0.6700    4.1670   -0.8070 os        1 2SD     -0.411600
     24 C5          0.1510    3.8150   -1.9320 c3        1 2SD      0.146100
     25 C6         -0.5460    2.5790   -2.5100 c3        1 2SD      0.126400
     26 O6         -1.9390    2.8720   -2.4990 oh        1 2SD     -0.634800
     27 HO8         0.6600   -1.0060   -1.4420 ho        1 2SD      0.435000
     28 H8          2.9080   -0.6780   -1.0140 h1        1 2SD      0.088700
     29 H9          0.8350    0.4170    1.0400 h1        1 2SD      0.065700
     30 HO9         1.0480   -1.7520    1.7140 ho        1 2SD      0.421000
     31 H10         2.6160    0.0300    2.7400 h1        1 2SD      0.055700
     32 HO10        3.6630   -1.6350    1.3370 ho        1 2SD      0.424000
     33 H11         2.5190    2.2540    1.6670 h1        1 2SD      0.051700
     34 H12         4.4290    1.9420    3.2450 h1        1 2SD      0.077700
     35 H12A        5.4580    1.2140    1.9030 h1        1 2SD      0.077700
     36 HO12        5.4860    3.2380    0.9850 ho        1 2SD      0.419000
     37 H7          3.1050    1.5830   -1.9320 h2        1 2SD      0.104700
     38 H4          2.2400    3.4020   -2.4130 h1        1 2SD      0.091700
     39 H3          2.1290    5.6880   -1.4510 h1        1 2SD      0.097700
     40 HO3         3.5030    3.8900    0.2510 ho        1 2SD      0.443000
     41 H2          1.1670    4.2390    1.1530 h1        1 2SD      0.092700
     42 HO2         2.4820    6.3720    1.1100 ho        1 2SD      0.471000
     43 H1         -0.2100    6.2130   -0.8250 h2        1 2SD      0.139700
     44 HNAJ       -3.4060    4.2360    0.9730 hn        1 2SD      0.473467
     45 HNAA       -3.6360    5.6290    0.1200 hn        1 2SD      0.473467
     46 H5          0.1310    4.6680   -2.6670 h1        1 2SD      0.069700
     47 H6         -0.3400    1.6770   -1.8720 h1        1 2SD      0.078200
     48 H6A        -0.1780    2.4100   -3.5550 h1        1 2SD      0.078200
     49 HO6        -2.3630    2.1990   -3.0460 ho        1 2SD      0.427000
     50 HAJ3       -2.7560    4.3880   -0.5310 hn        1 2SD      0.473467
@<TRIPOS>BOND
     1    1    2 1   
     2    1   27 1   
     3    2    3 1   
     4    2   11 1   
     5    2   28 1   
     6    3    4 1   
     7    3    5 1   
     8    3   29 1   
     9    4   30 1   
    10    5    6 1   
    11    5    7 1   
    12    5   31 1   
    13    6   32 1   
    14    7    8 1   
    15    7   10 1   
    16    7   33 1   
    17    8    9 1   
    18    8   34 1   
    19    8   35 1   
    20    9   36 1   
    21   10   11 1   
    22   11   12 1   
    23   11   37 1   
    24   12   13 1   
    25   13   14 1   
    26   13   24 1   
    27   13   38 1   
    28   14   15 1   
    29   14   16 1   
    30   14   39 1   
    31   15   40 1   
    32   16   17 1   
    33   16   18 1   
    34   16   41 1   
    35   17   42 1   
    36   18   19 1   
    37   18   23 1   
    38   18   43 1   
    39   19   20 2   
    40   19   21 2   
    41   19   22 1   
    42   22   44 1   
    43   22   45 1   
    44   22   50 1   
    45   23   24 1   
    46   24   25 1   
    47   24   46 1   
    48   25   26 1   
    49   25   47 1   
    50   25   48 1   
    51   26   49 1   
@<TRIPOS>SUBSTRUCTURE
     1 2SD         1 TEMP              0 ****  ****    0 ROOT
