@<TRIPOS>MOLECULE
2SD
   50    51     1     0     0
SMALL
bcc


@<TRIPOS>ATOM
      1 O8          0.2640   -0.0020   -0.6780 oh        1 2SD     -0.604800
      2 C8          1.6250    0.0110   -0.2950 c3        1 2SD      0.137100
      3 C9          1.7900   -0.1190    1.2250 c3        1 2SD      0.066100
      4 O9          1.3560   -1.4310    1.5480 oh        1 2SD     -0.604800
      5 C10         3.2720    0.0630    1.5970 c3        1 2SD      0.091100
      6 O10         4.0820   -0.9590    1.0450 oh        1 2SD     -0.584800
      7 C11         3.7570    1.4140    1.0600 c3        1 2SD      0.136100
      8 C12         5.2620    1.5980    1.2610 c3        1 2SD      0.140400
      9 O12         5.5160    2.9850    1.1000 oh        1 2SD     -0.621800
     10 O11         3.5490    1.5530   -0.3530 os        1 2SD     -0.422600
     11 C7          2.2370    1.3270   -0.8030 c3        1 2SD      0.329900
     12 O4          1.4760    2.4250   -0.3060 os        1 2SD     -0.429600
     13 C4          1.6400    3.6270   -1.0510 c3        1 2SD      0.089100
     14 C3          1.9340    4.7720   -0.0620 c3        1 2SD      0.122100
     15 O3          2.9900    4.4970    0.8320 oh        1 2SD     -0.598800
     16 C2          0.7070    5.0290    0.8310 c3        1 2SD      0.142100
     17 O2          0.8680    6.1550    1.6680 oh        1 2SD     -0.628800
     18 C1         -0.5030    5.3440   -0.0710 c3        1 2SD     -0.058100
     19 SAI        -1.9470    5.5990    0.8410 s6        1 2SD      1.363900
     20 OAM        -2.1150    4.7680    1.9240 o         1 2SD     -0.539800
     21 OAE        -2.3190    6.9260    0.8450 o         1 2SD     -0.539800
     22 NAJ        -3.2390    4.9060   -0.3390 n4        1 2SD     -0.798500
     23 O5         -0.7340    4.2480   -0.9380 os        1 2SD     -0.410600
     24 C5          0.3530    3.9460   -1.8260 c3        1 2SD      0.138100
     25 C6         -0.1790    2.7590   -2.6380 c3        1 2SD      0.122400
     26 O6         -1.5060    3.1020   -3.0140 oh        1 2SD     -0.628800
     27 HO8        -0.1120   -0.8150   -0.3090 ho        1 2SD      0.434000
     28 H8          2.1780   -0.8380   -0.7940 h1        1 2SD      0.085700
     29 H9          1.1610    0.6510    1.7490 h1        1 2SD      0.070700
     30 HO9         1.3040   -1.4860    2.5110 ho        1 2SD      0.422000
     31 H10         3.3810    0.0510    2.7190 h1        1 2SD      0.055700
     32 HO10        3.6210   -1.7970    1.1950 ho        1 2SD      0.423000
     33 H11         3.1830    2.2300    1.5860 h1        1 2SD      0.077700
     34 H12         5.5390    1.2780    2.3000 h1        1 2SD      0.059200
     35 H12A        5.8280    0.9900    0.5080 h1        1 2SD      0.059200
     36 HO12        6.4710    3.0870    1.0120 ho        1 2SD      0.420000
     37 H7          2.2990    1.3260   -1.9280 h2        1 2SD      0.090700
     38 H4          2.4970    3.5430   -1.7770 h1        1 2SD      0.089700
     39 H3          2.1840    5.7020   -0.6470 h1        1 2SD      0.062700
     40 HO3         3.6500    3.9450    0.3790 ho        1 2SD      0.461000
     41 H2          0.5030    4.1090    1.4510 h1        1 2SD      0.102700
     42 HO2         1.7620    6.1150    2.0440 ho        1 2SD      0.472000
     43 H1         -0.2470    6.2690   -0.6710 h2        1 2SD      0.140700
     44 HNAJ       -2.8230    4.4530   -1.1630 hn        1 2SD      0.473467
     45 HNAA       -3.8050    4.2000    0.1320 hn        1 2SD      0.473467
     46 H5          0.5270    4.8400   -2.4880 h1        1 2SD      0.069700
     47 H6          0.4710    2.6140   -3.5400 h1        1 2SD      0.073700
     48 H6A        -0.1900    1.8280   -2.0050 h1        1 2SD      0.073700
     49 HO6        -1.7880    2.4380   -3.6560 ho        1 2SD      0.427000
     50 HAJ3       -3.8640    5.6390   -0.6710 hn        1 2SD      0.473467
@<TRIPOS>BOND
     1    1    2 1   
     2    1   27 1   
     3    2    3 1   
     4    2   11 1   
     5    2   28 1   
     6    3    4 1   
     7    3    5 1   
     8    3   29 1   
     9    4   30 1   
    10    5    6 1   
    11    5    7 1   
    12    5   31 1   
    13    6   32 1   
    14    7    8 1   
    15    7   10 1   
    16    7   33 1   
    17    8    9 1   
    18    8   34 1   
    19    8   35 1   
    20    9   36 1   
    21   10   11 1   
    22   11   12 1   
    23   11   37 1   
    24   12   13 1   
    25   13   14 1   
    26   13   24 1   
    27   13   38 1   
    28   14   15 1   
    29   14   16 1   
    30   14   39 1   
    31   15   40 1   
    32   16   17 1   
    33   16   18 1   
    34   16   41 1   
    35   17   42 1   
    36   18   19 1   
    37   18   23 1   
    38   18   43 1   
    39   19   20 2   
    40   19   21 2   
    41   19   22 1   
    42   22   44 1   
    43   22   45 1   
    44   22   50 1   
    45   23   24 1   
    46   24   25 1   
    47   24   46 1   
    48   25   26 1   
    49   25   47 1   
    50   25   48 1   
    51   26   49 1   
@<TRIPOS>SUBSTRUCTURE
     1 2SD         1 TEMP              0 ****  ****    0 ROOT
