@<TRIPOS>MOLECULE
2SD
   49    49     1     0     0
SMALL
bcc


@<TRIPOS>ATOM
      1 O8         -1.9270   -1.8920    2.0720 oh        1 2SD     -0.324000
      2 C8         -0.5030   -1.7620    2.2020 c3        1 2SD      0.027000
      3 C9         -0.1640   -1.6350    3.6330 c3        1 2SD      0.029000
      4 O9          1.2840   -1.7360    3.7910 oh        1 2SD     -0.338000
      5 C10        -0.6210   -0.3460    4.2020 c3        1 2SD     -0.022000
      6 O10        -0.1040   -0.2180    5.5250 oh        1 2SD     -0.343000
      7 C11        -0.1550    0.8600    3.3670 c3        1 2SD      0.009000
      8 C12         1.3070    0.9950    3.5000 c3        1 2SD     -0.062000
      9 O12         1.6050    1.7910    4.6230 oh        1 2SD     -0.341000
     10 O11        -0.4880    0.7220    1.9520 os        1 2SD     -0.290000
     11 C7         -0.0400   -0.5490    1.3810 c3        1 2SD      0.115000
     12 O4         -0.5440   -0.6620    0.0830 os        1 2SD     -0.261000
     13 C4          0.2300    0.1760   -0.8160 c3        1 2SD      0.033000
     14 C3         -0.6900    1.1320   -1.4660 c3        1 2SD      0.021000
     15 O3         -1.8040    0.3550   -2.1210 oh        1 2SD     -0.321000
     16 C2         -0.0760    1.9410   -2.4450 c3        1 2SD     -0.005000
     17 O2          0.8810    2.8920   -1.7480 oh        1 2SD     -0.309000
     18 C1          0.6690    1.2090   -3.4670 c3        1 2SD     -0.621000
     19 SAI        -0.4600    0.3850   -4.6260 s4        1 2SD      1.995800
     20 OAM        -1.6530   -0.0480   -3.9700 o         1 2SD     -0.532400
     21 OAE         0.0750   -0.8610   -5.0760 o         1 2SD     -0.532400
     22 NAJ        -0.8030    1.3760   -5.8860 n2        1 2SD     -0.958000
     23 O5          1.6430    0.2370   -2.8160 os        1 2SD     -0.238000
     24 C5          1.0160   -0.7560   -1.8010 c3        1 2SD     -0.013000
     25 C6          0.1690   -1.6190   -2.4280 c3        1 2SD     -0.030000
     26 O6          0.5950   -2.9790   -2.1770 oh        1 2SD     -0.331000
     27 HO8        -2.1640   -2.7470    2.2190 ho        1 2SD      0.235000
     28 H8         -0.0790   -2.5650    1.8460 h1        1 2SD      0.114000
     29 H9         -0.5940   -2.3790    4.1330 h1        1 2SD      0.113000
     30 HO9         1.4840   -2.4860    4.2400 ho        1 2SD      0.227000
     31 H10        -1.6020   -0.3460    4.2420 h1        1 2SD      0.112000
     32 HO10       -0.7640   -0.0190    6.0830 ho        1 2SD      0.230000
     33 H11        -0.5830    1.6740    3.7160 h1        1 2SD      0.134000
     34 H12         1.7010    0.1250    3.6100 h1        1 2SD      0.088500
     35 H12A        1.6750    1.4240    2.6840 h1        1 2SD      0.088500
     36 HO12        2.4310    2.1140    4.5480 ho        1 2SD      0.211000
     37 H7          0.9320   -0.5490    1.3410 h2        1 2SD      0.102000
     38 H4          0.8840    0.6870   -0.2830 h1        1 2SD      0.119000
     39 H3         -1.0770    1.7140   -0.7750 h1        1 2SD      0.128000
     40 HO3        -2.6060    0.7010   -1.8670 ho        1 2SD      0.226000
     41 H2         -0.7720    2.4720   -2.8880 h1        1 2SD      0.100000
     42 HO2         0.8070    3.7200   -2.1180 ho        1 2SD      0.203000
     43 H1          1.1500    1.8260   -4.0740 h2        1 2SD      0.140000
     44 HNAJ       -0.9990    2.2480   -5.7360 hn        1 2SD      0.250500
     45 HNAA       -0.8090    1.0470   -6.7380 hn        1 2SD      0.250500
     46 H5          1.7180   -1.2460   -1.3240 h1        1 2SD      0.131000
     47 H6          0.1800   -1.4450   -3.3920 h1        1 2SD      0.108500
     48 H6A        -0.7390   -1.4920   -2.0840 h1        1 2SD      0.108500
     49 HO6         0.3830   -3.4880   -2.8700 ho        1 2SD      0.222000
@<TRIPOS>BOND
     1    1    2 1   
     2    1   27 1   
     3    2    3 1   
     4    2   11 1   
     5    2   28 1   
     6    3    4 1   
     7    3    5 1   
     8    3   29 1   
     9    4   30 1   
    10    5    6 1   
    11    5    7 1   
    12    5   31 1   
    13    6   32 1   
    14    7    8 1   
    15    7   10 1   
    16    7   33 1   
    17    8    9 1   
    18    8   34 1   
    19    8   35 1   
    20    9   36 1   
    21   10   11 1   
    22   11   12 1   
    23   11   37 1   
    24   12   13 1   
    25   13   14 1   
    26   13   24 1   
    27   13   38 1   
    28   14   15 1   
    29   14   16 1   
    30   14   39 1   
    31   15   40 1   
    32   16   17 1   
    33   16   18 1   
    34   16   41 1   
    35   17   42 1   
    36   18   19 1   
    37   18   23 1   
    38   18   43 1   
    39   19   20 1   
    40   19   21 1   
    41   22   44 1   
    42   22   45 1   
    43   23   24 1   
    44   24   25 1   
    45   24   46 1   
    46   25   26 1   
    47   25   47 1   
    48   25   48 1   
    49   26   49 1   
@<TRIPOS>SUBSTRUCTURE
     1 2SD         1 TEMP              0 ****  ****    0 ROOT
