@<TRIPOS>MOLECULE
2SD
   49    50     1     0     0
SMALL
bcc


@<TRIPOS>ATOM
      1 O8         -1.3190   -2.8050   -0.0130 oh        1 2SD     -0.598800
      2 C8         -2.3430   -1.8340   -0.0280 c3        1 2SD      0.095100
      3 C9         -2.5890   -1.3170   -1.4520 c3        1 2SD      0.077100
      4 O9         -3.1440   -2.3360   -2.2660 oh        1 2SD     -0.606800
      5 C10        -3.6030   -0.1610   -1.4400 c3        1 2SD      0.129100
      6 O10        -4.8850   -0.5960   -1.0260 oh        1 2SD     -0.592800
      7 C11        -3.1100    0.9220   -0.4750 c3        1 2SD      0.102100
      8 C12        -4.1130    2.0670   -0.3120 c3        1 2SD      0.146400
      9 O12        -3.4480    3.2960   -0.1070 oh        1 2SD     -0.608800
     10 O11        -2.9050    0.4080    0.8490 os        1 2SD     -0.420600
     11 C7         -2.0150   -0.6750    0.9310 c3        1 2SD      0.304900
     12 O4         -0.7350   -0.1850    0.5560 os        1 2SD     -0.446600
     13 C4         -0.0780    0.6050    1.5450 c3        1 2SD      0.130100
     14 C3          0.4950    1.8560    0.8610 c3        1 2SD      0.153100
     15 O3         -0.5830    2.5960    0.3240 oh        1 2SD     -0.596800
     16 C2          1.4840    1.4330   -0.2400 c3        1 2SD      0.110100
     17 O2          2.0660    2.6410   -0.6970 oh        1 2SD     -0.609800
     18 C1          2.5520    0.4880    0.3290 c3        1 2SD     -0.061100
     19 SAI         3.4420   -0.3380   -0.9790 s6        1 2SD      1.460900
     20 OAM         2.6050   -1.2990   -1.5600 o         1 2SD     -0.645300
     21 OAE         3.8820    0.7160   -1.8100 o         1 2SD     -0.645300
     22 NAJ         4.6610   -1.0010   -0.2160 n3        1 2SD     -1.024700
     23 O5          2.0130   -0.5810    1.0910 os        1 2SD     -0.402600
     24 C5          1.1040   -0.1870    2.1240 c3        1 2SD      0.083100
     25 C6          0.6420   -1.4940    2.7770 c3        1 2SD      0.130400
     26 O6          1.7160   -2.1590    3.4000 oh        1 2SD     -0.588800
     27 HO8        -0.4970   -2.3670   -0.2840 ho        1 2SD      0.427000
     28 H8         -3.2630   -2.3660    0.3480 h1        1 2SD      0.108700
     29 H9         -1.6160   -0.9650   -1.8970 h1        1 2SD      0.062700
     30 HO9        -2.6060   -3.1280   -2.1260 ho        1 2SD      0.424000
     31 H10        -3.6760    0.2700   -2.4790 h1        1 2SD      0.058700
     32 HO10       -5.1080   -1.3590   -1.5780 ho        1 2SD      0.421000
     33 H11        -2.1240    1.3190   -0.8550 h1        1 2SD      0.084700
     34 H12        -4.7020    2.2020   -1.2570 h1        1 2SD      0.064200
     35 H12A       -4.8070    1.8490    0.5430 h1        1 2SD      0.064200
     36 HO12       -2.8050    3.1610    0.6020 ho        1 2SD      0.417000
     37 H7         -2.0460   -1.0080    2.0070 h2        1 2SD      0.084700
     38 H4         -0.7900    0.9110    2.3570 h1        1 2SD      0.083700
     39 H3          1.0350    2.4820    1.6260 h1        1 2SD      0.056700
     40 HO3        -0.1960    3.3040   -0.2110 ho        1 2SD      0.429000
     41 H2          0.9190    0.9190   -1.0680 h1        1 2SD      0.078700
     42 HO2         2.6120    2.4380   -1.4720 ho        1 2SD      0.440000
     43 H1          3.2280    1.1060    0.9820 h2        1 2SD      0.094700
     44 HNAJ        4.6030   -1.8670    0.2620 hn        1 2SD      0.460300
     45 HNAA        5.5630   -0.5950   -0.1590 hn        1 2SD      0.460300
     46 H5          1.6560    0.4520    2.8680 h1        1 2SD      0.064700
     47 H6         -0.0810   -1.2610    3.6040 h1        1 2SD      0.066700
     48 H6A         0.1520   -2.1490    2.0050 h1        1 2SD      0.066700
     49 HO6         2.3270   -2.4250    2.7020 ho        1 2SD      0.407000
@<TRIPOS>BOND
     1    1    2 1   
     2    1   27 1   
     3    2    3 1   
     4    2   11 1   
     5    2   28 1   
     6    3    4 1   
     7    3    5 1   
     8    3   29 1   
     9    4   30 1   
    10    5    6 1   
    11    5    7 1   
    12    5   31 1   
    13    6   32 1   
    14    7    8 1   
    15    7   10 1   
    16    7   33 1   
    17    8    9 1   
    18    8   34 1   
    19    8   35 1   
    20    9   36 1   
    21   10   11 1   
    22   11   12 1   
    23   11   37 1   
    24   12   13 1   
    25   13   14 1   
    26   13   24 1   
    27   13   38 1   
    28   14   15 1   
    29   14   16 1   
    30   14   39 1   
    31   15   40 1   
    32   16   17 1   
    33   16   18 1   
    34   16   41 1   
    35   17   42 1   
    36   18   19 1   
    37   18   23 1   
    38   18   43 1   
    39   19   20 2   
    40   19   21 2   
    41   19   22 1   
    42   22   44 1   
    43   22   45 1   
    44   23   24 1   
    45   24   25 1   
    46   24   46 1   
    47   25   26 1   
    48   25   47 1   
    49   25   48 1   
    50   26   49 1   
@<TRIPOS>SUBSTRUCTURE
     1 2SD         1 TEMP              0 ****  ****    0 ROOT
