@<TRIPOS>MOLECULE
2SE
   69    72     1     0     0
SMALL
bcc


@<TRIPOS>ATOM
      1 CAI         0.1950   -0.5010    0.2600 ca        1 2SE     -0.217000
      2 CAK         1.5640   -0.4490    0.2020 ca        1 2SE      0.051000
      3 CBA         2.3590   -0.1500    1.3450 ca        1 2SE     -0.638500
      4 SBG         3.9320   -0.1760    1.2720 sy        1 2SE      1.512200
      5 OAB         4.5900   -0.1820    2.4840 o         1 2SE     -0.576300
      6 OAC         4.4800   -0.7610    0.1510 o         1 2SE     -0.576300
      7 NAA         4.2080    1.6950    0.7930 nz        1 2SE     -0.782500
      8 CAL         1.6730    0.0800    2.5660 ca        1 2SE      0.051000
      9 CAJ         0.3000    0.0320    2.6550 ca        1 2SE     -0.217000
     10 CAZ        -0.4640   -0.2600    1.5000 ca        1 2SE      0.284100
     11 OAY        -1.8080   -0.3340    1.4590 os        1 2SE     -0.283900
     12 CAP        -2.5370   -0.1180    2.6940 c3        1 2SE      0.122400
     13 CAO        -4.0000   -0.2480    2.3130 c3        1 2SE     -0.094400
     14 CAU        -4.8490   -0.1280    3.5810 c3        1 2SE      0.179800
     15 NBE        -6.2640    0.0510    3.2960 n3        1 2SE     -0.731600
     16 CAW        -6.9870    0.5480    4.4620 c3        1 2SE      0.170300
     17 CAT        -8.4830    0.7320    4.2130 c3        1 2SE     -0.074900
     18 CAV        -6.8720   -1.1360    2.7070 c3        1 2SE      0.170300
     19 CAS        -8.3710   -1.0010    2.4560 c3        1 2SE     -0.074900
     20 CBD        -9.0950   -0.5670    3.7220 c3        1 2SE     -0.049700
     21 CBF       -10.6250   -0.4930    3.5050 c3        1 2SE      0.122500
     22 CBC       -11.3610   -0.3530    4.8520 c3        1 2SE     -0.085700
     23 CAQ       -12.8730   -0.1660    4.6940 c3        1 2SE     -0.080400
     24 CAM       -13.5670   -1.1500    5.6270 c3        1 2SE     -0.080900
     25 CAN       -12.4870   -1.8210    6.4620 c3        1 2SE     -0.080900
     26 CAR       -11.1650   -1.5780    5.7500 c3        1 2SE     -0.080400
     27 OAD       -10.9590   -1.7380    2.8860 oh        1 2SE     -0.604800
     28 CBB       -10.9990    0.6380    2.5460 ca        1 2SE      0.374600
     29 NAX       -11.2230    1.8830    3.0360 nb        1 2SE     -0.665000
     30 CAG       -11.5520    2.8500    2.1610 ca        1 2SE      0.393200
     31 CAE       -11.6770    2.6450    0.7750 ca        1 2SE     -0.242300
     32 CAF       -11.4420    1.3640    0.2780 ca        1 2SE     -0.096000
     33 CAH       -11.0970    0.3460    1.1670 ca        1 2SE     -0.233300
     34 H1         -0.4150   -0.7380   -0.6280 ha        1 2SE      0.183500
     35 H2          2.0750   -0.6640   -0.7570 ha        1 2SE      0.168000
     36 H3          4.7030    1.7590   -0.0930 hn        1 2SE      0.449467
     37 H4          4.7720    2.1590    1.5000 hn        1 2SE      0.449467
     38 H5          2.2680    0.2870    3.4770 ha        1 2SE      0.168000
     39 H6         -0.1960    0.2080    3.6230 ha        1 2SE      0.183500
     40 H7         -2.2970    0.9070    3.0790 h1        1 2SE      0.059200
     41 H8         -2.2270   -0.9000    3.4340 h1        1 2SE      0.059200
     42 H9         -4.1710   -1.2380    1.8160 hc        1 2SE      0.076700
     43 H10        -4.2700    0.5520    1.5750 hc        1 2SE      0.076700
     44 H11        -4.6560   -1.0380    4.2230 h1        1 2SE      0.031200
     45 H12        -4.4990    0.7750    4.1600 h1        1 2SE      0.031200
     46 H14        -6.8500   -0.1360    5.3510 h1        1 2SE      0.028950
     47 H15        -6.5450    1.5500    4.7310 h1        1 2SE      0.028950
     48 H16        -8.6360    1.5450    3.4570 hc        1 2SE      0.062950
     49 H17        -8.9580    1.0590    5.1730 hc        1 2SE      0.062950
     50 H18        -6.6990   -2.0480    3.3540 h1        1 2SE      0.028950
     51 H19        -6.3610   -1.3180    1.7190 h1        1 2SE      0.028950
     52 H20        -8.7640   -1.9930    2.1120 hc        1 2SE      0.062950
     53 H21        -8.5630   -0.2550    1.6410 hc        1 2SE      0.062950
     54 H22        -8.9310   -1.3610    4.5070 hc        1 2SE      0.059700
     55 H23       -10.9430    0.5500    5.3740 hc        1 2SE      0.074700
     56 H24       -13.1950   -0.3330    3.6360 hc        1 2SE      0.047450
     57 H25       -13.1520    0.8860    4.9560 hc        1 2SE      0.047450
     58 H26       -14.3070   -0.6250    6.2800 hc        1 2SE      0.043950
     59 H27       -14.1300   -1.9130    5.0330 hc        1 2SE      0.043950
     60 H28       -12.4600   -1.3780    7.4890 hc        1 2SE      0.043950
     61 H29       -12.6850   -2.9160    6.5750 hc        1 2SE      0.043950
     62 H30       -10.8880   -2.4730    5.1340 hc        1 2SE      0.047450
     63 H31       -10.3400   -1.4020    6.4830 hc        1 2SE      0.047450
     64 H32       -11.9170   -1.8430    2.9530 ho        1 2SE      0.413000
     65 H33       -11.7280    3.8470    2.6040 h4        1 2SE      0.023100
     66 H34       -11.9550    3.4740    0.1120 ha        1 2SE      0.146000
     67 H35       -11.5290    1.1560   -0.7990 ha        1 2SE      0.140000
     68 H36       -10.9010   -0.6770    0.8130 ha        1 2SE      0.159000
     69 HAA3        3.3340    2.2000    0.7040 hn        1 2SE      0.449467
@<TRIPOS>BOND
     1    1    2 ar  
     2    1   10 ar  
     3    1   34 1   
     4    2    3 ar  
     5    2   35 1   
     6    3    4 1   
     7    3    8 ar  
     8    4    5 2   
     9    4    6 2   
    10    4    7 1   
    11    7   36 1   
    12    7   37 1   
    13    7   69 1   
    14    8    9 ar  
    15    8   38 1   
    16    9   10 ar  
    17    9   39 1   
    18   10   11 1   
    19   11   12 1   
    20   12   13 1   
    21   12   40 1   
    22   12   41 1   
    23   13   14 1   
    24   13   42 1   
    25   13   43 1   
    26   14   15 1   
    27   14   44 1   
    28   14   45 1   
    29   15   16 1   
    30   15   18 1   
    31   16   17 1   
    32   16   46 1   
    33   16   47 1   
    34   17   20 1   
    35   17   48 1   
    36   17   49 1   
    37   18   19 1   
    38   18   50 1   
    39   18   51 1   
    40   19   20 1   
    41   19   52 1   
    42   19   53 1   
    43   20   21 1   
    44   20   54 1   
    45   21   22 1   
    46   21   27 1   
    47   21   28 1   
    48   22   23 1   
    49   22   26 1   
    50   22   55 1   
    51   23   24 1   
    52   23   56 1   
    53   23   57 1   
    54   24   25 1   
    55   24   58 1   
    56   24   59 1   
    57   25   26 1   
    58   25   60 1   
    59   25   61 1   
    60   26   62 1   
    61   26   63 1   
    62   27   64 1   
    63   28   29 ar  
    64   28   33 ar  
    65   29   30 ar  
    66   30   31 ar  
    67   30   65 1   
    68   31   32 ar  
    69   31   66 1   
    70   32   33 ar  
    71   32   67 1   
    72   33   68 1   
@<TRIPOS>SUBSTRUCTURE
     1 2SE         1 TEMP              0 ****  ****    0 ROOT
