@<TRIPOS>MOLECULE
2SE
   69    72     1     0     0
SMALL
bcc


@<TRIPOS>ATOM
      1 CAI         0.2150   -0.5260    0.2670 ca        1 2SE     -0.217000
      2 CAK         1.5840   -0.4680    0.2050 ca        1 2SE      0.051000
      3 CBA         2.3790   -0.1440    1.3410 ca        1 2SE     -0.638500
      4 SBG         3.9530   -0.1620    1.2670 sy        1 2SE      1.512200
      5 OAB         4.6130   -0.1430    2.4770 o         1 2SE     -0.576300
      6 OAC         4.5010   -0.7650    0.1550 o         1 2SE     -0.576300
      7 NAA         4.2170    1.7010    0.7520 n4        1 2SE     -0.782500
      8 CAL         1.6940    0.1050    2.5590 ca        1 2SE      0.051000
      9 CAJ         0.3220    0.0510    2.6510 ca        1 2SE     -0.217000
     10 CAZ        -0.4430   -0.2650    1.5040 ca        1 2SE      0.284100
     11 OAY        -1.7870   -0.3480    1.4660 os        1 2SE     -0.283900
     12 CAP        -2.5140   -0.1130    2.6980 c3        1 2SE      0.122400
     13 CAO        -3.9770   -0.2580    2.3220 c3        1 2SE     -0.094400
     14 CAU        -4.8250   -0.1210    3.5900 c3        1 2SE      0.179800
     15 NBE        -6.2420    0.0450    3.3050 n3        1 2SE     -0.731600
     16 CAW        -6.9640    0.5560    4.4650 c3        1 2SE      0.169800
     17 CAT        -8.4630    0.7280    4.2170 c3        1 2SE     -0.074900
     18 CAV        -6.8440   -1.1530    2.7350 c3        1 2SE      0.169800
     19 CAS        -8.3440   -1.0300    2.4850 c3        1 2SE     -0.074900
     20 CBD        -9.0680   -0.5820    3.7450 c3        1 2SE     -0.049700
     21 CBF       -10.5980   -0.5190    3.5300 c3        1 2SE      0.122500
     22 CBC       -11.3330   -0.3650    4.8770 c3        1 2SE     -0.085700
     23 CAQ       -12.8460   -0.1880    4.7200 c3        1 2SE     -0.080400
     24 CAM       -13.5330   -1.1620    5.6670 c3        1 2SE     -0.080900
     25 CAN       -12.4480   -1.8170    6.5090 c3        1 2SE     -0.080900
     26 CAR       -11.1280   -1.5760    5.7910 c3        1 2SE     -0.080400
     27 OAD       -10.9280   -1.7750    2.9300 oh        1 2SE     -0.604800
     28 CBB       -10.9800    0.5970    2.5570 ca        1 2SE      0.374600
     29 NAX       -11.2110    1.8460    3.0300 nb        1 2SE     -0.665000
     30 CAG       -11.5460    2.7990    2.1420 ca        1 2SE      0.393200
     31 CAE       -11.6740    2.5750    0.7590 ca        1 2SE     -0.242300
     32 CAF       -11.4320    1.2880    0.2790 ca        1 2SE     -0.096000
     33 CAH       -11.0800    0.2840    1.1820 ca        1 2SE     -0.233300
     34 H1         -0.3950   -0.7820   -0.6160 ha        1 2SE      0.183500
     35 H2          2.0940   -0.6980   -0.7510 ha        1 2SE      0.168000
     36 H3          3.3400    2.2000    0.6550 hn        1 2SE      0.449467
     37 H4          4.7100    1.7520   -0.1360 hn        1 2SE      0.449467
     38 H5          2.2890    0.3320    3.4650 ha        1 2SE      0.168000
     39 H6         -0.1740    0.2420    3.6170 ha        1 2SE      0.183500
     40 H7         -2.1990   -0.8800    3.4530 h1        1 2SE      0.059200
     41 H8         -2.2800    0.9200    3.0640 h1        1 2SE      0.059200
     42 H9         -4.2540    0.5280    1.5720 hc        1 2SE      0.076700
     43 H10        -4.1440   -1.2570    1.8420 hc        1 2SE      0.076700
     44 H11        -4.4780    0.7920    4.1530 h1        1 2SE      0.031200
     45 H12        -4.6250   -1.0200    4.2470 h1        1 2SE      0.031200
     46 H14        -6.8220   -0.1150    5.3640 h1        1 2SE      0.029200
     47 H15        -6.5280    1.5630    4.7190 h1        1 2SE      0.029200
     48 H16        -8.9380    1.0660    5.1730 hc        1 2SE      0.062950
     49 H17        -8.6210    1.5280    3.4490 hc        1 2SE      0.062950
     50 H18        -6.6640   -2.0540    3.3940 h1        1 2SE      0.029200
     51 H19        -6.3340   -1.3470    1.7480 h1        1 2SE      0.029200
     52 H20        -8.5410   -0.2970    1.6590 hc        1 2SE      0.062950
     53 H21        -8.7320   -2.0290    2.1560 hc        1 2SE      0.062950
     54 H22        -8.8980   -1.3630    4.5420 hc        1 2SE      0.059700
     55 H23       -10.9190    0.5480    5.3850 hc        1 2SE      0.074700
     56 H24       -13.1700   -0.3710    3.6640 hc        1 2SE      0.047450
     57 H25       -13.1300    0.8660    4.9670 hc        1 2SE      0.047450
     58 H26       -14.0940   -1.9370    5.0860 hc        1 2SE      0.043950
     59 H27       -14.2740   -0.6320    6.3150 hc        1 2SE      0.043950
     60 H28       -12.6400   -2.9100    6.6380 hc        1 2SE      0.043950
     61 H29       -12.4210   -1.3590    7.5300 hc        1 2SE      0.043950
     62 H30       -10.8480   -2.4780    5.1880 hc        1 2SE      0.047450
     63 H31       -10.3030   -1.3850    6.5200 hc        1 2SE      0.047450
     64 H32       -11.8840   -1.8840    3.0000 ho        1 2SE      0.413000
     65 H33       -11.7280    3.8020    2.5710 h4        1 2SE      0.023100
     66 H34       -11.9570    3.3930    0.0860 ha        1 2SE      0.146000
     67 H35       -11.5200    1.0650   -0.7940 ha        1 2SE      0.140000
     68 H36       -10.8790   -0.7430    0.8420 ha        1 2SE      0.159000
     69 HAA3        4.7800    2.1810    1.4500 hn        1 2SE      0.449467
@<TRIPOS>BOND
     1    1    2 ar  
     2    1   10 ar  
     3    1   34 1   
     4    2    3 ar  
     5    2   35 1   
     6    3    4 1   
     7    3    8 ar  
     8    4    5 2   
     9    4    6 2   
    10    4    7 1   
    11    7   36 1   
    12    7   37 1   
    13    7   69 1   
    14    8    9 ar  
    15    8   38 1   
    16    9   10 ar  
    17    9   39 1   
    18   10   11 1   
    19   11   12 1   
    20   12   13 1   
    21   12   40 1   
    22   12   41 1   
    23   13   14 1   
    24   13   42 1   
    25   13   43 1   
    26   14   15 1   
    27   14   44 1   
    28   14   45 1   
    29   15   16 1   
    30   15   18 1   
    31   16   17 1   
    32   16   46 1   
    33   16   47 1   
    34   17   20 1   
    35   17   48 1   
    36   17   49 1   
    37   18   19 1   
    38   18   50 1   
    39   18   51 1   
    40   19   20 1   
    41   19   52 1   
    42   19   53 1   
    43   20   21 1   
    44   20   54 1   
    45   21   22 1   
    46   21   27 1   
    47   21   28 1   
    48   22   23 1   
    49   22   26 1   
    50   22   55 1   
    51   23   24 1   
    52   23   56 1   
    53   23   57 1   
    54   24   25 1   
    55   24   58 1   
    56   24   59 1   
    57   25   26 1   
    58   25   60 1   
    59   25   61 1   
    60   26   62 1   
    61   26   63 1   
    62   27   64 1   
    63   28   29 ar  
    64   28   33 ar  
    65   29   30 ar  
    66   30   31 ar  
    67   30   65 1   
    68   31   32 ar  
    69   31   66 1   
    70   32   33 ar  
    71   32   67 1   
    72   33   68 1   
@<TRIPOS>SUBSTRUCTURE
     1 2SE         1 TEMP              0 ****  ****    0 ROOT
