@<TRIPOS>MOLECULE
2SE
   69    72     1     0     0
SMALL
bcc


@<TRIPOS>ATOM
      1 CAI         0.2020   -0.4990    0.2600 ca        1 2SE     -0.217000
      2 CAK         1.5710   -0.4450    0.2010 ca        1 2SE      0.051000
      3 CBA         2.3660   -0.1420    1.3430 ca        1 2SE     -0.638500
      4 SBG         3.9390   -0.1650    1.2710 sy        1 2SE      1.512200
      5 OAB         4.5970   -0.1670    2.4820 o         1 2SE     -0.576300
      6 OAC         4.4880   -0.7520    0.1500 o         1 2SE     -0.576300
      7 NAA         4.2120    1.7050    0.7870 n4        1 2SE     -0.782500
      8 CAL         1.6800    0.0900    2.5630 ca        1 2SE      0.051000
      9 CAJ         0.3070    0.0400    2.6530 ca        1 2SE     -0.217000
     10 CAZ        -0.4570   -0.2550    1.4980 ca        1 2SE      0.284100
     11 OAY        -1.8010   -0.3320    1.4570 os        1 2SE     -0.283900
     12 CAP        -2.5300   -0.1130    2.6920 c3        1 2SE      0.122400
     13 CAO        -3.9930   -0.2460    2.3120 c3        1 2SE     -0.094400
     14 CAU        -4.8420   -0.1220    3.5790 c3        1 2SE      0.179800
     15 NBE        -6.2580    0.0530    3.2940 n3        1 2SE     -0.731600
     16 CAW        -6.9810    0.5550    4.4580 c3        1 2SE      0.170300
     17 CAT        -8.4780    0.7350    4.2080 c3        1 2SE     -0.074900
     18 CAV        -6.8630   -1.1380    2.7100 c3        1 2SE      0.170300
     19 CAS        -8.3630   -1.0060    2.4590 c3        1 2SE     -0.074900
     20 CBD        -9.0870   -0.5680    3.7230 c3        1 2SE     -0.049700
     21 CBF       -10.6170   -0.4980    3.5070 c3        1 2SE      0.122500
     22 CBC       -11.3530   -0.3540    4.8540 c3        1 2SE     -0.085700
     23 CAQ       -12.8650   -0.1700    4.6960 c3        1 2SE     -0.080400
     24 CAM       -13.5570   -1.1510    5.6320 c3        1 2SE     -0.080900
     25 CAN       -12.4750   -1.8180    6.4700 c3        1 2SE     -0.080900
     26 CAR       -11.1540   -1.5750    5.7560 c3        1 2SE     -0.080400
     27 OAD       -10.9500   -1.7460    2.8930 oh        1 2SE     -0.604800
     28 CBB       -10.9940    0.6290    2.5430 ca        1 2SE      0.374600
     29 NAX       -11.2200    1.8750    3.0280 nb        1 2SE     -0.665000
     30 CAG       -11.5520    2.8370    2.1500 ca        1 2SE      0.393200
     31 CAE       -11.6780    2.6270    0.7650 ca        1 2SE     -0.242300
     32 CAF       -11.4400    1.3440    0.2720 ca        1 2SE     -0.096000
     33 CAH       -11.0920    0.3310    1.1650 ca        1 2SE     -0.233300
     34 H1         -0.4070   -0.7390   -0.6280 ha        1 2SE      0.183500
     35 H2          2.0820   -0.6620   -0.7580 ha        1 2SE      0.168000
     36 H3          4.7060    1.7680   -0.1000 hn        1 2SE      0.449467
     37 H4          3.3370    2.2090    0.6970 hn        1 2SE      0.449467
     38 H5          2.2740    0.3000    3.4740 ha        1 2SE      0.168000
     39 H6         -0.1900    0.2180    3.6200 ha        1 2SE      0.183500
     40 H7         -2.2190   -0.8920    3.4350 h1        1 2SE      0.059200
     41 H8         -2.2910    0.9130    3.0740 h1        1 2SE      0.059200
     42 H9         -4.2640    0.5510    1.5710 hc        1 2SE      0.076700
     43 H10        -4.1630   -1.2380    1.8180 hc        1 2SE      0.076700
     44 H11        -4.6470   -1.0290    4.2260 h1        1 2SE      0.031200
     45 H12        -4.4930    0.7840    4.1540 h1        1 2SE      0.031200
     46 H14        -6.5410    1.5580    4.7210 h1        1 2SE      0.028950
     47 H15        -6.8430   -0.1250    5.3500 h1        1 2SE      0.028950
     48 H16        -8.6320    1.5430    3.4480 hc        1 2SE      0.062950
     49 H17        -8.9530    1.0660    5.1670 hc        1 2SE      0.062950
     50 H18        -6.3530   -1.3230    1.7230 h1        1 2SE      0.028950
     51 H19        -6.6880   -2.0460    3.3610 h1        1 2SE      0.028950
     52 H20        -8.5560   -0.2650    1.6410 hc        1 2SE      0.062950
     53 H21        -8.7540   -2.0010    2.1200 hc        1 2SE      0.062950
     54 H22        -8.9210   -1.3580    4.5120 hc        1 2SE      0.059700
     55 H23       -10.9370    0.5530    5.3720 hc        1 2SE      0.074700
     56 H24       -13.1880   -0.3420    3.6380 hc        1 2SE      0.047450
     57 H25       -13.1460    0.8830    4.9530 hc        1 2SE      0.047450
     58 H26       -14.1190   -1.9190    5.0430 hc        1 2SE      0.043950
     59 H27       -14.2980   -0.6250    6.2840 hc        1 2SE      0.043950
     60 H28       -12.6720   -2.9120    6.5870 hc        1 2SE      0.043950
     61 H29       -12.4490   -1.3700    7.4950 hc        1 2SE      0.043950
     62 H30       -10.3290   -1.3940    6.4880 hc        1 2SE      0.047450
     63 H31       -10.8760   -2.4710    5.1440 hc        1 2SE      0.047450
     64 H32       -11.9070   -1.8530    2.9610 ho        1 2SE      0.413000
     65 H33       -11.7300    3.8360    2.5880 h4        1 2SE      0.023100
     66 H34       -11.9570    3.4530    0.0990 ha        1 2SE      0.146000
     67 H35       -11.5270    1.1320   -0.8030 ha        1 2SE      0.141000
     68 H36       -10.8940   -0.6940    0.8160 ha        1 2SE      0.159000
     69 HAA3        4.7750    2.1710    1.4930 hn        1 2SE      0.449467
@<TRIPOS>BOND
     1    1    2 ar  
     2    1   10 ar  
     3    1   34 1   
     4    2    3 ar  
     5    2   35 1   
     6    3    4 1   
     7    3    8 ar  
     8    4    5 2   
     9    4    6 2   
    10    4    7 1   
    11    7   36 1   
    12    7   37 1   
    13    7   69 1   
    14    8    9 ar  
    15    8   38 1   
    16    9   10 ar  
    17    9   39 1   
    18   10   11 1   
    19   11   12 1   
    20   12   13 1   
    21   12   40 1   
    22   12   41 1   
    23   13   14 1   
    24   13   42 1   
    25   13   43 1   
    26   14   15 1   
    27   14   44 1   
    28   14   45 1   
    29   15   16 1   
    30   15   18 1   
    31   16   17 1   
    32   16   46 1   
    33   16   47 1   
    34   17   20 1   
    35   17   48 1   
    36   17   49 1   
    37   18   19 1   
    38   18   50 1   
    39   18   51 1   
    40   19   20 1   
    41   19   52 1   
    42   19   53 1   
    43   20   21 1   
    44   20   54 1   
    45   21   22 1   
    46   21   27 1   
    47   21   28 1   
    48   22   23 1   
    49   22   26 1   
    50   22   55 1   
    51   23   24 1   
    52   23   56 1   
    53   23   57 1   
    54   24   25 1   
    55   24   58 1   
    56   24   59 1   
    57   25   26 1   
    58   25   60 1   
    59   25   61 1   
    60   26   62 1   
    61   26   63 1   
    62   27   64 1   
    63   28   29 ar  
    64   28   33 ar  
    65   29   30 ar  
    66   30   31 ar  
    67   30   65 1   
    68   31   32 ar  
    69   31   66 1   
    70   32   33 ar  
    71   32   67 1   
    72   33   68 1   
@<TRIPOS>SUBSTRUCTURE
     1 2SE         1 TEMP              0 ****  ****    0 ROOT
