@<TRIPOS>MOLECULE
2SF
   67    70     1     0     0
SMALL
bcc


@<TRIPOS>ATOM
      1 CAK         0.2220    0.2970    0.0320 ca        1 2SF     -0.186000
      2 CAI         1.6040    0.4190    0.1660 ca        1 2SF     -0.055500
      3 CAY         2.2630   -0.1610    1.2560 ca        1 2SF     -0.046000
      4 CAC         3.6710   -0.0340    1.3870 cg        1 2SF      0.229800
      5 NAA         4.8250    0.0700    1.4940 n1        1 2SF     -0.352800
      6 CAJ         1.5300   -0.8700    2.2240 ca        1 2SF     -0.055500
      7 CAL         0.1540   -0.9980    2.1020 ca        1 2SF     -0.186000
      8 CAZ        -0.5000   -0.4110    1.0000 ca        1 2SF      0.143100
      9 OAX        -1.8660   -0.6030    0.9770 os        1 2SF     -0.328900
     10 CAP        -2.5670    0.0020   -0.1160 c3        1 2SF      0.128400
     11 CAO        -4.0320   -0.3330    0.1140 c3        1 2SF     -0.089400
     12 CAU        -4.8450    0.1340   -1.0910 c3        1 2SF      0.171800
     13 NBD        -6.2860    0.1190   -0.8700 n3        1 2SF     -0.729600
     14 CAW        -7.0070    0.7550   -1.9640 c3        1 2SF      0.169800
     15 CAT        -8.5150    0.8180   -1.7190 c3        1 2SF     -0.084400
     16 CAV        -6.8100   -1.2010   -0.5640 c3        1 2SF      0.169800
     17 CAS        -8.3180   -1.1990   -0.2900 c3        1 2SF     -0.084400
     18 CBC        -9.0760   -0.5750   -1.4530 c3        1 2SF     -0.081700
     19 CBE       -10.6180   -0.5050   -1.2450 c3        1 2SF      0.223500
     20 CBB       -11.3230   -0.3070   -2.6190 c3        1 2SF     -0.093700
     21 CAQ       -12.8410   -0.1380   -2.4890 c3        1 2SF     -0.104900
     22 CAM       -13.4930   -1.4480   -2.9120 c3        1 2SF     -0.097900
     23 CAN       -12.4230   -2.2930   -3.5870 c3        1 2SF     -0.097900
     24 CAR       -11.1390   -1.4740   -3.5980 c3        1 2SF     -0.104900
     25 NAB       -11.1330   -1.8390   -0.7000 nz        1 2SF     -0.846600
     26 CBA       -10.9740    0.5850   -0.2510 ca        1 2SF     -0.149300
     27 CAG       -11.4040    1.8410   -0.7010 ca        1 2SF     -0.121000
     28 CAE       -11.7080    2.8570    0.2040 ca        1 2SF     -0.110500
     29 CAD       -11.5880    2.6380    1.5750 ca        1 2SF     -0.089000
     30 CAF       -11.1470    1.3970    2.0350 ca        1 2SF     -0.110500
     31 CAH       -10.8360    0.3820    1.1320 ca        1 2SF     -0.121000
     32 H1         -0.2790    0.7590   -0.8300 ha        1 2SF      0.148500
     33 H2          2.1780    0.9750   -0.5920 ha        1 2SF      0.151000
     34 H3          2.0500   -1.3250    3.0810 ha        1 2SF      0.151000
     35 H4         -0.4340   -1.5480    2.8500 ha        1 2SF      0.148500
     36 H5         -2.1970   -0.4300   -1.0830 h1        1 2SF      0.045200
     37 H6         -2.3980    1.1110   -0.1060 h1        1 2SF      0.045200
     38 H7         -4.3840    0.1650    1.0540 hc        1 2SF      0.065700
     39 H8         -4.1350   -1.4400    0.2570 hc        1 2SF      0.065700
     40 H9         -4.5590   -0.4970   -1.9850 h1        1 2SF      0.041700
     41 H10        -4.5610    1.2010   -1.3220 h1        1 2SF      0.041700
     42 H12        -6.8230    0.2320   -2.9480 h1        1 2SF      0.046950
     43 H13        -6.6240    1.8110   -2.0600 h1        1 2SF      0.046950
     44 H14        -8.7270    1.4880   -0.8440 hc        1 2SF      0.055200
     45 H15        -8.9940    1.2690   -2.6250 hc        1 2SF      0.055200
     46 H16        -6.2900   -1.5700    0.3650 h1        1 2SF      0.046950
     47 H17        -6.6010   -1.9400   -1.3940 h1        1 2SF      0.046950
     48 H18        -8.6130   -2.2680   -0.1310 hc        1 2SF      0.055200
     49 H19        -8.5220   -0.6250    0.6510 hc        1 2SF      0.055200
     50 H20        -8.8760   -1.2030   -2.3690 hc        1 2SF      0.067700
     51 H21       -10.8660    0.6160   -3.0680 hc        1 2SF      0.100700
     52 H22       -13.1500    0.1550   -1.4550 hc        1 2SF      0.067700
     53 H23       -13.1710    0.6880   -3.1720 hc        1 2SF      0.067700
     54 H24       -13.9270   -1.9830   -2.0290 hc        1 2SF      0.057950
     55 H25       -14.3430   -1.2490   -3.6140 hc        1 2SF      0.057950
     56 H26       -12.2770   -3.2600   -3.0410 hc        1 2SF      0.057950
     57 H27       -12.7250   -2.5570   -4.6320 hc        1 2SF      0.057950
     58 H28       -10.9730   -1.0500   -4.6230 hc        1 2SF      0.067700
     59 H29       -10.2510   -2.1130   -3.3740 hc        1 2SF      0.067700
     60 H30       -12.1540   -1.7920   -0.6360 hn        1 2SF      0.455800
     61 H31       -10.7350   -2.0230    0.2230 hn        1 2SF      0.455800
     62 H33       -11.5050    2.0530   -1.7770 ha        1 2SF      0.131500
     63 H34       -12.0430    3.8380   -0.1710 ha        1 2SF      0.158500
     64 H35       -11.8300    3.4400    2.2910 ha        1 2SF      0.162000
     65 H36       -11.0350    1.2180    3.1170 ha        1 2SF      0.158500
     66 H37       -10.4530   -0.5610    1.5490 ha        1 2SF      0.131500
     67 HAB3      -10.8680   -2.5880   -1.3440 hn        1 2SF      0.455800
@<TRIPOS>BOND
     1    1    2 ar  
     2    1    8 ar  
     3    1   32 1   
     4    2    3 ar  
     5    2   33 1   
     6    3    4 1   
     7    3    6 ar  
     8    4    5 3   
     9    6    7 ar  
    10    6   34 1   
    11    7    8 ar  
    12    7   35 1   
    13    8    9 1   
    14    9   10 1   
    15   10   11 1   
    16   10   36 1   
    17   10   37 1   
    18   11   12 1   
    19   11   38 1   
    20   11   39 1   
    21   12   13 1   
    22   12   40 1   
    23   12   41 1   
    24   13   14 1   
    25   13   16 1   
    26   14   15 1   
    27   14   42 1   
    28   14   43 1   
    29   15   18 1   
    30   15   44 1   
    31   15   45 1   
    32   16   17 1   
    33   16   46 1   
    34   16   47 1   
    35   17   18 1   
    36   17   48 1   
    37   17   49 1   
    38   18   19 1   
    39   18   50 1   
    40   19   20 1   
    41   19   25 1   
    42   19   26 1   
    43   20   21 1   
    44   20   24 1   
    45   20   51 1   
    46   21   22 1   
    47   21   52 1   
    48   21   53 1   
    49   22   23 1   
    50   22   54 1   
    51   22   55 1   
    52   23   24 1   
    53   23   56 1   
    54   23   57 1   
    55   24   58 1   
    56   24   59 1   
    57   25   60 1   
    58   25   61 1   
    59   25   67 1   
    60   26   27 ar  
    61   26   31 ar  
    62   27   28 ar  
    63   27   62 1   
    64   28   29 ar  
    65   28   63 1   
    66   29   30 ar  
    67   29   64 1   
    68   30   31 ar  
    69   30   65 1   
    70   31   66 1   
@<TRIPOS>SUBSTRUCTURE
     1 2SF         1 TEMP              0 ****  ****    0 ROOT
