@<TRIPOS>MOLECULE
2SF
   67    70     1     0     0
SMALL
bcc


@<TRIPOS>ATOM
      1 CAK         0.2230    0.2980    0.0370 ca        1 2SF     -0.186000
      2 CAI         1.6040    0.4210    0.1720 ca        1 2SF     -0.055500
      3 CAY         2.2630   -0.1650    1.2600 ca        1 2SF     -0.046000
      4 CAC         3.6710   -0.0360    1.3920 cg        1 2SF      0.229800
      5 NAA         4.8250    0.0690    1.5000 n1        1 2SF     -0.352800
      6 CAJ         1.5310   -0.8800    2.2220 ca        1 2SF     -0.055500
      7 CAL         0.1550   -1.0100    2.0990 ca        1 2SF     -0.186000
      8 CAZ        -0.4990   -0.4170    1.0000 ca        1 2SF      0.143100
      9 OAX        -1.8650   -0.6110    0.9750 os        1 2SF     -0.328900
     10 CAP        -2.5660    0.0010   -0.1150 c3        1 2SF      0.128400
     11 CAO        -4.0310   -0.3380    0.1120 c3        1 2SF     -0.089400
     12 CAU        -4.8440    0.1380   -1.0890 c3        1 2SF      0.171800
     13 NBD        -6.2850    0.1200   -0.8680 n3        1 2SF     -0.729600
     14 CAW        -7.0070    0.7650   -1.9570 c3        1 2SF      0.169800
     15 CAT        -8.5140    0.8240   -1.7110 c3        1 2SF     -0.084400
     16 CAV        -6.8080   -1.2030   -0.5740 c3        1 2SF      0.169800
     17 CAS        -8.3160   -1.2040   -0.3000 c3        1 2SF     -0.084400
     18 CBC        -9.0740   -0.5720   -1.4580 c3        1 2SF     -0.081700
     19 CBE       -10.6170   -0.5040   -1.2480 c3        1 2SF      0.223500
     20 CBB       -11.3210   -0.2940   -2.6200 c3        1 2SF     -0.093700
     21 CAQ       -12.8390   -0.1270   -2.4880 c3        1 2SF     -0.104900
     22 CAM       -13.4910   -1.4320   -2.9240 c3        1 2SF     -0.097900
     23 CAN       -12.4210   -2.2700   -3.6070 c3        1 2SF     -0.097900
     24 CAR       -11.1370   -1.4500   -3.6100 c3        1 2SF     -0.104900
     25 NAB       -11.1300   -1.8440   -0.7160 n4        1 2SF     -0.846600
     26 CBA       -10.9730    0.5760   -0.2430 ca        1 2SF     -0.149300
     27 CAG       -11.4040    1.8360   -0.6810 ca        1 2SF     -0.121000
     28 CAE       -11.7080    2.8430    0.2340 ca        1 2SF     -0.110500
     29 CAD       -11.5880    2.6100    1.6030 ca        1 2SF     -0.089000
     30 CAF       -11.1470    1.3650    2.0500 ca        1 2SF     -0.110500
     31 CAH       -10.8350    0.3590    1.1370 ca        1 2SF     -0.121000
     32 H1         -0.2780    0.7640   -0.8230 ha        1 2SF      0.148500
     33 H2          2.1780    0.9830   -0.5820 ha        1 2SF      0.151000
     34 H3          2.0510   -1.3400    3.0770 ha        1 2SF      0.151000
     35 H4         -0.4330   -1.5660    2.8430 ha        1 2SF      0.148500
     36 H5         -2.3980    1.1100   -0.0970 h1        1 2SF      0.045200
     37 H6         -2.1960   -0.4240   -1.0840 h1        1 2SF      0.045200
     38 H7         -4.1330   -1.4460    0.2470 hc        1 2SF      0.065700
     39 H8         -4.3840    0.1530    1.0560 hc        1 2SF      0.065700
     40 H9         -4.5610    1.2070   -1.3120 h1        1 2SF      0.041700
     41 H10        -4.5570   -0.4850   -1.9870 h1        1 2SF      0.041700
     42 H12        -6.6240    1.8220   -2.0430 h1        1 2SF      0.046950
     43 H13        -6.8220    0.2500   -2.9460 h1        1 2SF      0.046950
     44 H14        -8.9940    1.2820   -2.6130 hc        1 2SF      0.055450
     45 H15        -8.7270    1.4860   -0.8300 hc        1 2SF      0.055450
     46 H16        -6.5980   -1.9350   -1.4100 h1        1 2SF      0.046950
     47 H17        -6.2870   -1.5800    0.3520 h1        1 2SF      0.046950
     48 H18        -8.5200   -0.6390    0.6470 hc        1 2SF      0.055450
     49 H19        -8.6100   -2.2760   -0.1500 hc        1 2SF      0.055450
     50 H20        -8.8740   -1.1910   -2.3780 hc        1 2SF      0.067700
     51 H21       -10.8660    0.6350   -3.0600 hc        1 2SF      0.100700
     52 H22       -13.1480    0.1560   -1.4520 hc        1 2SF      0.067700
     53 H23       -13.1710    0.7060   -3.1630 hc        1 2SF      0.067700
     54 H24       -13.9250   -1.9770   -2.0470 hc        1 2SF      0.057950
     55 H25       -14.3410   -1.2280   -3.6240 hc        1 2SF      0.057950
     56 H26       -12.2740   -3.2430   -3.0710 hc        1 2SF      0.057950
     57 H27       -12.7230   -2.5250   -4.6550 hc        1 2SF      0.057950
     58 H28       -10.2490   -2.0910   -3.3940 hc        1 2SF      0.067700
     59 H29       -10.9720   -1.0160   -4.6320 hc        1 2SF      0.067700
     60 H30       -10.8650   -2.5860   -1.3680 hn        1 2SF      0.455800
     61 H31       -10.7310   -2.0370    0.2050 hn        1 2SF      0.455800
     62 H33       -11.5040    2.0580   -1.7550 ha        1 2SF      0.131500
     63 H34       -12.0430    3.8270   -0.1320 ha        1 2SF      0.158500
     64 H35       -11.8310    3.4050    2.3260 ha        1 2SF      0.162000
     65 H36       -11.0350    1.1750    3.1300 ha        1 2SF      0.158500
     66 H37       -10.4520   -0.5880    1.5450 ha        1 2SF      0.131500
     67 HAB3      -12.1520   -1.7980   -0.6510 hn        1 2SF      0.455800
@<TRIPOS>BOND
     1    1    2 ar  
     2    1    8 ar  
     3    1   32 1   
     4    2    3 ar  
     5    2   33 1   
     6    3    4 1   
     7    3    6 ar  
     8    4    5 3   
     9    6    7 ar  
    10    6   34 1   
    11    7    8 ar  
    12    7   35 1   
    13    8    9 1   
    14    9   10 1   
    15   10   11 1   
    16   10   36 1   
    17   10   37 1   
    18   11   12 1   
    19   11   38 1   
    20   11   39 1   
    21   12   13 1   
    22   12   40 1   
    23   12   41 1   
    24   13   14 1   
    25   13   16 1   
    26   14   15 1   
    27   14   42 1   
    28   14   43 1   
    29   15   18 1   
    30   15   44 1   
    31   15   45 1   
    32   16   17 1   
    33   16   46 1   
    34   16   47 1   
    35   17   18 1   
    36   17   48 1   
    37   17   49 1   
    38   18   19 1   
    39   18   50 1   
    40   19   20 1   
    41   19   25 1   
    42   19   26 1   
    43   20   21 1   
    44   20   24 1   
    45   20   51 1   
    46   21   22 1   
    47   21   52 1   
    48   21   53 1   
    49   22   23 1   
    50   22   54 1   
    51   22   55 1   
    52   23   24 1   
    53   23   56 1   
    54   23   57 1   
    55   24   58 1   
    56   24   59 1   
    57   25   60 1   
    58   25   61 1   
    59   25   67 1   
    60   26   27 ar  
    61   26   31 ar  
    62   27   28 ar  
    63   27   62 1   
    64   28   29 ar  
    65   28   63 1   
    66   29   30 ar  
    67   29   64 1   
    68   30   31 ar  
    69   30   65 1   
    70   31   66 1   
@<TRIPOS>SUBSTRUCTURE
     1 2SF         1 TEMP              0 ****  ****    0 ROOT
