@<TRIPOS>MOLECULE
2SF
   67    70     1     0     0
SMALL
bcc


@<TRIPOS>ATOM
      1 CAK         0.2220    0.3060    0.0330 ca        1 2SF     -0.186000
      2 CAI         1.6040    0.4280    0.1660 ca        1 2SF     -0.055500
      3 CAY         2.2640   -0.1570    1.2530 ca        1 2SF     -0.046000
      4 CAC         3.6730   -0.0290    1.3830 cg        1 2SF      0.229800
      5 NAA         4.8260    0.0750    1.4900 n1        1 2SF     -0.352800
      6 CAJ         1.5330   -0.8710    2.2170 ca        1 2SF     -0.055500
      7 CAL         0.1560   -1.0000    2.0960 ca        1 2SF     -0.186000
      8 CAZ        -0.4980   -0.4080    0.9980 ca        1 2SF      0.143100
      9 OAX        -1.8650   -0.6020    0.9740 os        1 2SF     -0.328900
     10 CAP        -2.5670    0.0080   -0.1160 c3        1 2SF      0.128400
     11 CAO        -4.0310   -0.3310    0.1130 c3        1 2SF     -0.089400
     12 CAU        -4.8460    0.1430   -1.0890 c3        1 2SF      0.171800
     13 NBD        -6.2870    0.1230   -0.8680 n3        1 2SF     -0.729600
     14 CAW        -7.0090    0.7680   -1.9560 c3        1 2SF      0.169800
     15 CAT        -8.5170    0.8250   -1.7090 c3        1 2SF     -0.084400
     16 CAV        -6.8080   -1.2010   -0.5730 c3        1 2SF      0.169800
     17 CAS        -8.3150   -1.2040   -0.2990 c3        1 2SF     -0.084400
     18 CBC        -9.0750   -0.5720   -1.4560 c3        1 2SF     -0.081700
     19 CBE       -10.6170   -0.5060   -1.2470 c3        1 2SF      0.223500
     20 CBB       -11.3220   -0.2950   -2.6180 c3        1 2SF     -0.093700
     21 CAQ       -12.8410   -0.1310   -2.4860 c3        1 2SF     -0.104900
     22 CAM       -13.4910   -1.4370   -2.9230 c3        1 2SF     -0.097900
     23 CAN       -12.4190   -2.2720   -3.6070 c3        1 2SF     -0.097900
     24 CAR       -11.1370   -1.4500   -3.6100 c3        1 2SF     -0.104900
     25 NAB       -11.1290   -1.8470   -0.7160 n4        1 2SF     -0.846600
     26 CBA       -10.9740    0.5720   -0.2410 ca        1 2SF     -0.149300
     27 CAG       -11.4070    1.8320   -0.6770 ca        1 2SF     -0.121000
     28 CAE       -11.7130    2.8380    0.2390 ca        1 2SF     -0.110500
     29 CAD       -11.5920    2.6040    1.6080 ca        1 2SF     -0.089000
     30 CAF       -11.1500    1.3580    2.0540 ca        1 2SF     -0.110500
     31 CAH       -10.8360    0.3540    1.1400 ca        1 2SF     -0.121000
     32 H1         -0.2790    0.7710   -0.8270 ha        1 2SF      0.148500
     33 H2          2.1770    0.9880   -0.5900 ha        1 2SF      0.151000
     34 H3          2.0540   -1.3300    3.0720 ha        1 2SF      0.151000
     35 H4         -0.4300   -1.5550    2.8420 ha        1 2SF      0.148500
     36 H5         -2.3990    1.1170   -0.1000 h1        1 2SF      0.045200
     37 H6         -2.1960   -0.4180   -1.0850 h1        1 2SF      0.045200
     38 H7         -4.3840    0.1610    1.0560 hc        1 2SF      0.065700
     39 H8         -4.1320   -1.4390    0.2490 hc        1 2SF      0.065700
     40 H9         -4.5630    1.2120   -1.3120 h1        1 2SF      0.041700
     41 H10        -4.5580   -0.4800   -1.9870 h1        1 2SF      0.041700
     42 H12        -6.8240    0.2530   -2.9450 h1        1 2SF      0.046950
     43 H13        -6.6280    1.8250   -2.0420 h1        1 2SF      0.046950
     44 H14        -8.7300    1.4860   -0.8290 hc        1 2SF      0.055450
     45 H15        -8.9970    1.2830   -2.6120 hc        1 2SF      0.055450
     46 H16        -6.5970   -1.9320   -1.4090 h1        1 2SF      0.046950
     47 H17        -6.2860   -1.5760    0.3530 h1        1 2SF      0.046950
     48 H18        -8.5200   -0.6390    0.6480 hc        1 2SF      0.055450
     49 H19        -8.6080   -2.2750   -0.1490 hc        1 2SF      0.055450
     50 H20        -8.8740   -1.1910   -2.3770 hc        1 2SF      0.067700
     51 H21       -10.8680    0.6340   -3.0570 hc        1 2SF      0.100700
     52 H22       -13.1500    0.1510   -1.4490 hc        1 2SF      0.067700
     53 H23       -13.1730    0.7020   -3.1590 hc        1 2SF      0.067700
     54 H24       -14.3410   -1.2320   -3.6230 hc        1 2SF      0.057950
     55 H25       -13.9230   -1.9830   -2.0460 hc        1 2SF      0.057950
     56 H26       -12.2710   -3.2450   -3.0730 hc        1 2SF      0.057950
     57 H27       -12.7210   -2.5260   -4.6560 hc        1 2SF      0.057950
     58 H28       -10.2480   -2.0910   -3.3940 hc        1 2SF      0.067700
     59 H29       -10.9720   -1.0150   -4.6310 hc        1 2SF      0.067700
     60 H30       -12.1500   -1.8030   -0.6510 hn        1 2SF      0.455800
     61 H31       -10.7290   -2.0410    0.2050 hn        1 2SF      0.455800
     62 H33       -11.5080    2.0560   -1.7510 ha        1 2SF      0.131500
     63 H34       -12.0490    3.8220   -0.1260 ha        1 2SF      0.158500
     64 H35       -11.8360    3.3970    2.3320 ha        1 2SF      0.162000
     65 H36       -11.0370    1.1680    3.1330 ha        1 2SF      0.158500
     66 H37       -10.4520   -0.5940    1.5470 ha        1 2SF      0.131500
     67 HAB3      -10.8630   -2.5890   -1.3690 hn        1 2SF      0.455800
@<TRIPOS>BOND
     1    1    2 ar  
     2    1    8 ar  
     3    1   32 1   
     4    2    3 ar  
     5    2   33 1   
     6    3    4 1   
     7    3    6 ar  
     8    4    5 3   
     9    6    7 ar  
    10    6   34 1   
    11    7    8 ar  
    12    7   35 1   
    13    8    9 1   
    14    9   10 1   
    15   10   11 1   
    16   10   36 1   
    17   10   37 1   
    18   11   12 1   
    19   11   38 1   
    20   11   39 1   
    21   12   13 1   
    22   12   40 1   
    23   12   41 1   
    24   13   14 1   
    25   13   16 1   
    26   14   15 1   
    27   14   42 1   
    28   14   43 1   
    29   15   18 1   
    30   15   44 1   
    31   15   45 1   
    32   16   17 1   
    33   16   46 1   
    34   16   47 1   
    35   17   18 1   
    36   17   48 1   
    37   17   49 1   
    38   18   19 1   
    39   18   50 1   
    40   19   20 1   
    41   19   25 1   
    42   19   26 1   
    43   20   21 1   
    44   20   24 1   
    45   20   51 1   
    46   21   22 1   
    47   21   52 1   
    48   21   53 1   
    49   22   23 1   
    50   22   54 1   
    51   22   55 1   
    52   23   24 1   
    53   23   56 1   
    54   23   57 1   
    55   24   58 1   
    56   24   59 1   
    57   25   60 1   
    58   25   61 1   
    59   25   67 1   
    60   26   27 ar  
    61   26   31 ar  
    62   27   28 ar  
    63   27   62 1   
    64   28   29 ar  
    65   28   63 1   
    66   29   30 ar  
    67   29   64 1   
    68   30   31 ar  
    69   30   65 1   
    70   31   66 1   
@<TRIPOS>SUBSTRUCTURE
     1 2SF         1 TEMP              0 ****  ****    0 ROOT
