@<TRIPOS>MOLECULE
2SH
   57    58     1     0     0
SMALL
bcc


@<TRIPOS>ATOM
      1 C4          0.2870    1.1860    1.3730 c2        1 2SH     -0.212000
      2 C5          1.4840    0.5490    0.9920 c1        1 2SH     -0.045000
      3 C6          2.0670   -0.4760    1.8790 c3        1 2SH     -0.173000
      4 C7          3.5970   -0.3600    1.7610 c3        1 2SH     -0.068000
      5 C15         7.9040   -2.6040    2.3020 c3        1 2SH     -0.063000
      6 C17         7.4150   -2.2590    4.7670 c2        1 2SH     -0.242000
      7 C20         5.6430   -2.5810    6.8490 c2        1 2SH      0.169000
      8 C22         6.2260   -3.0040    4.6350 c2        1 2SH     -0.020000
      9 C26         4.7110    0.2290   13.7250 c2        1 2SH     -0.327000
     10 C1          1.5470   -0.5260    3.2680 c2        1 2SH     -0.149000
     11 C2          0.4340    0.1510    3.6100 c2        1 2SH     -0.163000
     12 C3         -0.2470    1.0140    2.6470 c2        1 2SH      0.217000
     13 C9          4.1410    0.8990    2.4740 c3        1 2SH     -0.039000
     14 O10         4.1840    0.7040    3.8690 oh        1 2SH     -0.336000
     15 N11         4.2790   -1.5990    2.2770 n4        1 2SH     -0.104000
     16 C12         5.7040   -1.7770    1.7290 c2        1 2SH      0.317000
     17 O13         6.0280   -1.0010    0.8290 o         1 2SH     -0.226000
     18 N14         6.4610   -2.8570    2.1940 n         1 2SH     -0.217000
     19 C16         8.3580   -2.0300    3.6500 c3        1 2SH     -0.135000
     20 C18         7.6530   -1.7130    6.0540 c2        1 2SH      0.026000
     21 N19         6.8210   -1.8620    7.0840 n2        1 2SH     -0.178000
     22 N21         5.3280   -3.1690    5.6240 n2        1 2SH     -0.246000
     23 C23         5.9730   -3.6720    3.2970 c3        1 2SH     -0.046000
     24 C25         4.9850   -2.3470    9.2290 c3        1 2SH     -0.024000
     25 C27         4.3270    0.3690   12.4540 c2        1 2SH     -0.019000
     26 O28         4.6250   -0.5110   11.4400 oh        1 2SH     -0.290000
     27 C29         6.7510   -3.1420   10.7810 c2        1 2SH     -0.188000
     28 C30         5.7280   -3.4130    9.9750 c2        1 2SH     -0.214000
     29 CL1        -0.4380    2.2040    0.2370 cl        1 2SH      0.081000
     30 F32        -1.3550    1.6310    3.0720 f         1 2SH     -0.038000
     31 H1          1.7170   -1.4360    1.3580 hc        1 2SH      0.182000
     32 H2          3.8430   -0.2570    0.6540 hx        1 2SH      0.203000
     33 H3          8.2190   -1.9140    1.4680 h1        1 2SH      0.139500
     34 H4          8.3900   -3.6070    2.1290 h1        1 2SH      0.139500
     35 H7          2.0650   -1.1650    4.0020 ha        1 2SH      0.143000
     36 H8         -0.0060    0.0900    4.6200 ha        1 2SH      0.181000
     37 H9          3.3800    1.0760    4.2550 ho        1 2SH      0.227000
     38 H10         5.2070    1.0780    2.1570 h1        1 2SH      0.138500
     39 H11         3.5070    1.7720    2.1690 h1        1 2SH      0.138500
     40 H12         4.3380   -1.5260    3.3060 hn        1 2SH      0.257500
     41 H13         8.5270   -0.9230    3.5410 hc        1 2SH      0.119500
     42 H14         9.3550   -2.4880    3.8990 hc        1 2SH      0.119500
     43 H15         8.5730   -1.1310    6.2580 h4        1 2SH      0.184000
     44 H16         6.5700   -4.6350    3.2740 h1        1 2SH      0.140000
     45 H17         4.8980   -3.9640    3.1500 h1        1 2SH      0.140000
     46 H19         5.5420   -1.3660    9.2820 h1        1 2SH      0.130000
     47 H20         3.9890   -2.1840    9.7440 h1        1 2SH      0.130000
     48 H21         3.7270    1.1990   12.0480 h4        1 2SH      0.162000
     49 H22         5.1580   -1.2380   11.7960 ho        1 2SH      0.212000
     50 H23         7.2630   -3.9240   11.3590 ha        1 2SH      0.123000
     51 H24         7.1490   -2.1260   10.9190 ha        1 2SH      0.123000
     52 H25         5.3530   -4.4410    9.8480 ha        1 2SH      0.126000
     53 H5          5.3100   -0.6180   14.0790 ha        1 2SH      0.130000
     54 H112        3.7200   -2.4200    2.0320 hn        1 2SH      0.257500
     55 N24         4.6730   -2.6530    7.8510 nh        1 2SH     -0.250000
     56 H6          4.4400    0.9680   14.4870 ha        1 2SH      0.130000
     57 H18         3.9980   -3.3820    7.7300 hn        1 2SH      0.227000
@<TRIPOS>BOND
     1    1    2 1   
     2    1   12 1   
     3    1   29 1   
     4    2    3 1   
     5    3    4 1   
     6    3   10 1   
     7    3   31 1   
     8    4   13 1   
     9    4   15 1   
    10    4   32 1   
    11    5   18 1   
    12    5   19 1   
    13    5   33 1   
    14    5   34 1   
    15    6    8 1   
    16    6   19 1   
    17    6   20 1   
    18    7   21 1   
    19    7   22 1   
    20    7   55 1   
    21    8   22 1   
    22    8   23 1   
    23    9   25 1   
    24    9   53 1   
    25    9   56 1   
    26   10   11 1   
    27   10   35 1   
    28   11   12 1   
    29   11   36 1   
    30   12   30 1   
    31   13   14 1   
    32   13   38 1   
    33   13   39 1   
    34   14   37 1   
    35   15   16 1   
    36   15   40 1   
    37   15   54 1   
    38   16   17 1   
    39   16   18 1   
    40   18   23 1   
    41   19   41 1   
    42   19   42 1   
    43   20   21 1   
    44   20   43 1   
    45   23   44 1   
    46   23   45 1   
    47   24   28 1   
    48   24   46 1   
    49   24   47 1   
    50   24   55 1   
    51   25   26 1   
    52   25   48 1   
    53   26   49 1   
    54   27   28 1   
    55   27   50 1   
    56   27   51 1   
    57   28   52 1   
    58   55   57 1   
@<TRIPOS>SUBSTRUCTURE
     1 2SH         1 TEMP              0 ****  ****    0 ROOT
