@<TRIPOS>MOLECULE
2SH
   58    59     1     0     0
SMALL
bcc


@<TRIPOS>ATOM
      1 C4          1.0770   -1.5690   -1.0870 c2        1 2SH     -0.200000
      2 C5          1.5800   -1.0700    0.0870 c2        1 2SH      0.038000
      3 C6          1.4540    0.3450    0.4850 c3        1 2SH     -0.171000
      4 C7          2.8430    0.8790    1.0000 c3        1 2SH      0.074000
      5 C15         5.5300   -1.8040    4.0470 c3        1 2SH     -0.025000
      6 C17         6.5110   -2.1060    6.3500 c2        1 2SH     -0.125000
      7 C20         6.3890   -3.3450    8.7540 c2        1 2SH     -0.023000
      8 C22         5.4170   -1.9190    7.2290 c2        1 2SH     -0.014500
      9 C26         6.6190   -2.0800   11.6330 c3        1 2SH     -0.185000
     10 C1          0.8080    1.2060   -0.5230 c2        1 2SH      0.057000
     11 C2          0.3070    0.7120   -1.6910 c2        1 2SH     -0.251000
     12 C3          0.4270   -0.6760   -2.0120 c2        1 2SH      0.370000
     13 C9          2.9270    2.4170    0.8630 c3        1 2SH     -0.045000
     14 O10         1.8290    2.9700    1.5640 oh        1 2SH     -0.353000
     15 N11         3.1000    0.4610    2.3550 n         1 2SH     -0.385000
     16 C12         3.8990   -0.6500    2.6190 c2        1 2SH      0.327000
     17 O13         4.1840   -1.4410    1.6940 o         1 2SH     -0.352000
     18 N14         4.3690   -0.9000    3.9840 n         1 2SH     -0.143000
     19 C16         6.6070   -1.3920    5.0550 c3        1 2SH     -0.125000
     20 C18         7.5340   -2.9740    6.7920 c2        1 2SH     -0.014500
     21 N19         7.4950   -3.6030    7.9840 n2        1 2SH     -0.137500
     22 N21         5.3350   -2.5230    8.4280 n2        1 2SH     -0.137500
     23 C23         3.8250   -0.4630    5.0830 c1        1 2SH     -0.162000
     24 C25         7.2260   -3.3880   11.1200 c3        1 2SH     -0.015000
     25 C27         7.4750   -1.4700   12.7380 c3        1 2SH     -0.010000
     26 O28         7.0250   -2.0270   13.9610 oh        1 2SH     -0.338000
     27 C29         8.2680   -5.4160   12.1070 c2        1 2SH     -0.138000
     28 C30         7.4390   -4.3790   12.2230 c2        1 2SH     -0.253000
     29 CL1         1.2330   -3.2070   -1.4510 cl        1 2SH      0.124000
     30 F32        -0.0630   -1.1170   -3.1590 f         1 2SH      0.022000
     31 H1          0.7320    0.3810    1.3810 hc        1 2SH      0.228000
     32 H2          3.6350    0.4360    0.3200 h1        1 2SH      0.150000
     33 H3          6.0030   -1.8470    3.0220 h1        1 2SH      0.128500
     34 H4          5.1390   -2.8320    4.2930 h1        1 2SH      0.128500
     35 H7          0.6790    2.2790   -0.2670 ha        1 2SH      0.209000
     36 H8         -0.2060    1.3700   -2.4200 ha        1 2SH      0.214000
     37 H9          2.0100    3.9110    1.7000 ho        1 2SH      0.245000
     38 H10         2.8730    2.6960   -0.2250 h1        1 2SH      0.104500
     39 H11         3.9020    2.7870    1.2810 h1        1 2SH      0.104500
     40 H12         2.8540    1.1060    3.0720 hn        1 2SH      0.257000
     41 H13         6.5700   -0.2850    5.2540 hc        1 2SH      0.126000
     42 H14         7.6050   -1.6090    4.5820 hc        1 2SH      0.126000
     43 H15         8.4330   -3.1860    6.1770 h4        1 2SH      0.227000
     44 H16         4.5650   -1.2500    6.9360 h4        1 2SH      0.227000
     45 H17         2.9310    0.1840    5.0560 ha        1 2SH      0.089000
     46 H19         8.2080   -3.1690   10.6000 hx        1 2SH      0.153000
     47 H20         8.5630   -1.7020   12.5870 h1        1 2SH      0.087000
     48 H21         7.3320   -0.3550   12.7430 h1        1 2SH      0.087000
     49 H22         7.4630   -1.5450   14.6740 ho        1 2SH      0.230000
     50 H23         8.4430   -6.1110   12.9450 ha        1 2SH      0.142000
     51 H24         8.8380   -5.6410   11.1940 ha        1 2SH      0.142000
     52 H25         6.9050   -4.1520   13.1650 ha        1 2SH      0.193000
     53 H5          5.5880   -2.2590   12.0460 hc        1 2SH      0.118500
     54 H112        2.1270   -1.7390    0.7880 ha        1 2SH      0.214000
     55 N24         6.3200   -4.0320   10.0740 n4        1 2SH      0.011000
     56 H6          6.5420   -1.3450   10.7910 hc        1 2SH      0.118500
     57 H18         5.3490   -4.0110   10.4170 hn        1 2SH      0.266500
     58 H242        6.6110   -5.0130    9.9550 hn        1 2SH      0.266500
@<TRIPOS>BOND
     1    1    2 1   
     2    1   12 1   
     3    1   29 1   
     4    2    3 1   
     5    2   54 1   
     6    3    4 1   
     7    3   10 1   
     8    3   31 1   
     9    4   13 1   
    10    4   15 1   
    11    4   32 1   
    12    5   18 1   
    13    5   19 1   
    14    5   33 1   
    15    5   34 1   
    16    6    8 1   
    17    6   19 1   
    18    6   20 1   
    19    7   21 1   
    20    7   22 1   
    21    7   55 1   
    22    8   22 1   
    23    8   44 1   
    24    9   24 1   
    25    9   25 1   
    26    9   53 1   
    27    9   56 1   
    28   10   11 1   
    29   10   35 1   
    30   11   12 1   
    31   11   36 1   
    32   12   30 1   
    33   13   14 1   
    34   13   38 1   
    35   13   39 1   
    36   14   37 1   
    37   15   16 1   
    38   15   40 1   
    39   16   17 1   
    40   16   18 1   
    41   18   23 1   
    42   19   41 1   
    43   19   42 1   
    44   20   21 1   
    45   20   43 1   
    46   23   45 1   
    47   24   28 1   
    48   24   46 1   
    49   24   55 1   
    50   25   26 1   
    51   25   47 1   
    52   25   48 1   
    53   26   49 1   
    54   27   28 1   
    55   27   50 1   
    56   27   51 1   
    57   28   52 1   
    58   55   57 1   
    59   55   58 1   
@<TRIPOS>SUBSTRUCTURE
     1 2SH         1 TEMP              0 ****  ****    0 ROOT
