@<TRIPOS>MOLECULE
2SH
   57    59     1     0     0
SMALL
bcc


@<TRIPOS>ATOM
      1 C4          0.1990   -1.1890    2.2120 c2        1 2SH     -0.211000
      2 C5          1.5950   -1.2960    2.0590 c1        1 2SH     -0.056000
      3 C6          2.4770   -0.5790    2.9970 c3        1 2SH     -0.178000
      4 C7          3.7160   -0.1230    2.2080 c3        1 2SH     -0.071000
      5 C15         7.9650   -1.9890    2.7400 c3        1 2SH     -0.065000
      6 C17         7.3320   -2.2760    5.1830 c2        1 2SH     -0.292000
      7 C20         5.3160   -2.5210    7.0540 c2        1 2SH      0.130000
      8 C22         5.9850   -2.4720    4.8190 c2        1 2SH     -0.012000
      9 C26         3.7880   -1.5730   10.0670 c3        1 2SH     -0.087000
     10 C1          1.8480    0.4720    3.8340 c2        1 2SH     -0.138000
     11 C2          0.5070    0.5800    3.9070 c2        1 2SH     -0.170000
     12 C3         -0.3610   -0.2800    3.1050 c2        1 2SH      0.220000
     13 C9          3.4250    1.1100    1.3200 c3        1 2SH     -0.040000
     14 O10         3.3400    2.2790    2.1030 oh        1 2SH     -0.330000
     15 N11         4.8890    0.1460    3.1140 ny        1 2SH     -0.111000
     16 C12         6.2160   -0.3390    2.5130 c2        1 2SH      0.314000
     17 O13         6.8460    0.5530    1.9400 o         1 2SH     -0.231000
     18 N14         6.5360   -1.6960    2.5610 n         1 2SH     -0.206000
     19 C16         8.4250   -2.1250    4.1980 c3        1 2SH     -0.124000
     20 C18         7.5810   -2.2190    6.5800 c2        1 2SH      0.026000
     21 N19         6.6380   -2.3400    7.5060 n2        1 2SH     -0.210000
     22 N21         4.9670   -2.5350    5.6920 n2        1 2SH     -0.285000
     23 C23         5.7000   -2.6050    3.3360 c3        1 2SH     -0.054000
     24 C25         4.4250   -2.6850    9.3410 c2        1 2SH     -0.466000
     25 C27         4.8540   -0.8240   10.8660 c3        1 2SH     -0.051000
     26 O28         5.5360   -1.7310   11.7670 os        1 2SH     -0.124000
     27 C29         5.8230   -2.9460   11.3400 c2        1 2SH      0.100000
     28 C30         5.2980   -3.5570   10.1200 c3        1 2SH     -0.091000
     29 Cl1        -0.7610   -2.1740    1.2300 cl        1 2SH      0.077000
     30 F32        -1.6790   -0.1120    3.2580 f         1 2SH     -0.040000
     31 H1          2.7680   -1.4320    3.7120 hc        1 2SH      0.198000
     32 H2          3.9920   -0.9780    1.5120 hx        1 2SH      0.186000
     33 H3          8.1300   -2.9640    2.1950 h1        1 2SH      0.136500
     34 H4          8.5700   -1.1930    2.2200 h1        1 2SH      0.136500
     35 H7          2.5040    1.1300    4.4250 ha        1 2SH      0.145000
     36 H8          0.0090    1.3150    4.5630 ha        1 2SH      0.179000
     37 H9          2.4090    2.4500    2.2960 ho        1 2SH      0.225000
     38 H10         2.4910    0.9030    0.7350 h1        1 2SH      0.138000
     39 H11         4.2870    1.2830    0.6150 h1        1 2SH      0.138000
     40 H12         4.9700    1.1690    3.2410 hn        1 2SH      0.264500
     41 H13         9.0390   -1.2230    4.4710 hc        1 2SH      0.111500
     42 H14         9.1100   -3.0150    4.2590 hc        1 2SH      0.111500
     43 H15         8.6110   -2.0650    6.9540 h4        1 2SH      0.170000
     44 H16         5.9840   -3.6550    3.0220 h1        1 2SH      0.143500
     45 H17         4.6130   -2.4770    3.0760 h1        1 2SH      0.143500
     46 H19         6.1540   -3.9850    9.5230 hc        1 2SH      0.170500
     47 H20         5.6320   -0.3800   10.1930 h1        1 2SH      0.119500
     48 H21         4.4320   -0.0570   11.5660 h1        1 2SH      0.119500
     49 H22         7.6990   -1.6020   10.2310 ha        1 2SH      0.003000
     50 H23         8.0180   -1.9800   10.6950 ha        1 2SH      0.003000
     51 H24         6.3960   -3.5210   12.0940 h4        1 2SH      0.184000
     52 H25         4.7060   -4.4550   10.5030 hc        1 2SH      0.170500
     53 H5          3.0240   -1.9660   10.7930 hc        1 2SH      0.089000
     54 H112        4.7380   -0.2930    4.0270 hn        1 2SH      0.264500
     55 N24         4.3140   -2.8250    7.9630 nu        1 2SH     -0.095000
     56 H6          3.2720   -0.8430    9.3920 hc        1 2SH      0.089000
     57 H18         3.3790   -2.7550    7.6150 hn        1 2SH      0.230000
@<TRIPOS>BOND
     1    1    2 1   
     2    1   12 1   
     3    1   29 1   
     4    2    3 1   
     5    3    4 1   
     6    3   10 1   
     7    3   31 1   
     8    4   13 1   
     9    4   15 1   
    10    4   32 1   
    11    5   18 1   
    12    5   19 1   
    13    5   33 1   
    14    5   34 1   
    15    6    8 1   
    16    6   19 1   
    17    6   20 1   
    18    7   21 1   
    19    7   22 1   
    20    7   55 1   
    21    8   22 1   
    22    8   23 1   
    23    9   24 1   
    24    9   25 1   
    25    9   53 1   
    26    9   56 1   
    27   10   11 1   
    28   10   35 1   
    29   11   12 1   
    30   11   36 1   
    31   12   30 1   
    32   13   14 1   
    33   13   38 1   
    34   13   39 1   
    35   14   37 1   
    36   15   16 1   
    37   15   40 1   
    38   15   54 1   
    39   16   17 1   
    40   16   18 1   
    41   18   23 1   
    42   19   41 1   
    43   19   42 1   
    44   20   21 1   
    45   20   43 1   
    46   23   44 1   
    47   23   45 1   
    48   24   28 1   
    49   24   55 1   
    50   25   26 1   
    51   25   47 1   
    52   25   48 1   
    53   26   27 1   
    54   27   28 1   
    55   27   51 1   
    56   28   46 1   
    57   28   52 1   
    58   49   50 1   
    59   55   57 1   
@<TRIPOS>SUBSTRUCTURE
     1 2SH         1 TEMP              0 ****  ****    0 ROOT
