@<TRIPOS>MOLECULE
2SI
   25    24     1     0     0
SMALL
bcc


@<TRIPOS>ATOM
      1 C1         -1.2160   -0.1080   -0.8090 c3        1 2SI      0.324900
      2 C2          0.2730   -0.1080   -0.8090 c3        1 2SI      0.175100
      3 C3          0.8450   -0.1080    0.5390 c3        1 2SI      0.092100
      4 C4          0.2850    0.9760    1.4030 c3        1 2SI      0.146100
      5 C5         -1.2650    0.9750    1.4470 c3        1 2SI      0.004100
      6 C6         -1.7850   -0.1580    2.2650 c         1 2SI      0.896600
      7 O1         -1.6650    0.0640   -2.1180 oh        1 2SI     -0.599800
      8 O2          0.7430   -1.3030   -1.5190 os        1 2SI     -0.603600
      9 O3          2.2930    0.0750    0.4350 oh        1 2SI     -0.626800
     10 O5         -1.7970    0.9680    0.0420 os        1 2SI     -0.466600
     11 O61        -1.1350   -0.5640    3.2630 o         1 2SI     -0.844800
     12 O62        -2.8750   -0.7090    1.9570 o         1 2SI     -0.844800
     13 S           1.4540   -1.0580   -2.8250 s4        1 2SI      1.878600
     14 O1S         1.9420   -2.3510   -3.4340 o         1 2SI     -0.684400
     15 O2S         0.4970   -0.5760   -3.8880 o         1 2SI     -0.684400
     16 O3S         2.5900   -0.0830   -2.6270 os        1 2SI     -1.095000
     17 O4          0.7790    0.8070    2.7230 oh        1 2SI     -0.627800
     18 H1         -1.5300   -0.9720   -0.4800 h2        1 2SI      0.083700
     19 H2          0.5870    0.6850   -1.2840 h1        1 2SI      0.056700
     20 H3          0.6650   -0.9710    0.9580 h1        1 2SI      0.053700
     21 H4          0.5890    1.8380    1.0620 h1        1 2SI      0.049700
     22 H5         -1.6100    1.7410    1.9440 h1        1 2SI      0.049700
     23 H1O1       -2.5420   -0.0700   -2.1500 ho        1 2SI      0.394000
     24 H3O1        2.7060   -0.5460    0.9160 ho        1 2SI      0.433000
     25 H4O1        1.1740    1.5560    2.9890 ho        1 2SI      0.440000
@<TRIPOS>BOND
     1    1    2 1   
     2    1    7 1   
     3    1   10 1   
     4    1   18 1   
     5    2    3 1   
     6    2    8 1   
     7    2   19 1   
     8    3    4 1   
     9    3    9 1   
    10    3   20 1   
    11    4    5 1   
    12    4   17 1   
    13    4   21 1   
    14    5    6 1   
    15    5   10 1   
    16    5   22 1   
    17    6   11 1   
    18    6   12 1   
    19    7   23 1   
    20    8   13 1   
    21    9   24 1   
    22   13   14 1   
    23   13   15 1   
    24   17   25 1   
@<TRIPOS>SUBSTRUCTURE
     1 2SI         1 TEMP              0 ****  ****    0 ROOT
