@<TRIPOS>MOLECULE
2SI
   25    25     1     0     0
SMALL
bcc


@<TRIPOS>ATOM
      1 C1          3.4680   -3.0020    0.2750 c3        1 2SI      0.300900
      2 C2          3.7510   -2.9450    1.7940 c3        1 2SI      0.173100
      3 C3          3.1740   -1.6720    2.4490 c3        1 2SI      0.080100
      4 C4          1.7980   -1.2890    1.8640 c3        1 2SI      0.118100
      5 C5          1.8980   -1.2140    0.3380 c3        1 2SI     -0.017900
      6 C6          0.6200   -0.6720   -0.3560 c         1 2SI      0.936600
      7 O1          4.4570   -2.2140   -0.3770 oh        1 2SI     -0.667800
      8 O2          3.1980   -4.0760    2.3830 os        1 2SI     -0.601500
      9 O3          4.0960   -0.5990    2.3220 oh        1 2SI     -0.619800
     10 O5          2.2320   -2.5020   -0.1810 os        1 2SI     -0.410600
     11 O61         0.2480    0.4790    0.0210 o         1 2SI     -0.839800
     12 O62         0.0650   -1.3270   -1.2760 o         1 2SI     -0.839800
     13 S           4.1350   -5.1900    3.3240 s6        1 2SI      1.696300
     14 O1S         5.3690   -5.1820    2.6660 o         1 2SI     -0.756200
     15 O2S         4.1460   -4.6160    4.5930 o         1 2SI     -0.756200
     16 O3S         3.3950   -6.3640    3.1960 o         1 2SI     -0.756200
     17 O4          0.8310   -2.2170    2.3110 oh        1 2SI     -0.598800
     18 H1          3.5030   -4.0680   -0.0900 h2        1 2SI      0.070700
     19 H2          4.8750   -2.9390    1.9260 h1        1 2SI      0.059700
     20 H3          3.0760   -1.8420    3.5570 h1        1 2SI      0.089700
     21 H4          1.4580   -0.2930    2.2580 h1        1 2SI      0.087700
     22 H5          2.7260   -0.4940    0.0750 h1        1 2SI      0.017700
     23 H1O1        4.1030   -1.9900   -1.2470 ho        1 2SI      0.408000
     24 H3O1        4.3250   -0.5430    1.3840 ho        1 2SI      0.404000
     25 H4O1        1.0790   -3.0750    1.9340 ho        1 2SI      0.424000
@<TRIPOS>BOND
     1    1    2 1   
     2    1    7 1   
     3    1   10 1   
     4    1   18 1   
     5    2    3 1   
     6    2    8 1   
     7    2   19 1   
     8    3    4 1   
     9    3    9 1   
    10    3   20 1   
    11    4    5 1   
    12    4   17 1   
    13    4   21 1   
    14    5    6 1   
    15    5   10 1   
    16    5   22 1   
    17    6   11 1   
    18    6   12 1   
    19    7   23 1   
    20    8   13 1   
    21    9   24 1   
    22   13   14 1   
    23   13   15 1   
    24   13   16 1   
    25   17   25 1   
@<TRIPOS>SUBSTRUCTURE
     1 2SI         1 TEMP              0 ****  ****    0 ROOT
