@<TRIPOS>MOLECULE
2SJ
   52    54     1     0     0
SMALL
bcc


@<TRIPOS>ATOM
      1 O4          0.4940    1.2900    0.1990 o         1 2SJ     -0.402100
      2 C12         1.1470    0.2780    0.0080 c         1 2SJ      0.561100
      3 C13         1.1370   -1.0010    0.7690 c3        1 2SJ     -0.188100
      4 N1          2.1220    0.3500   -1.1580 n4        1 2SJ     -0.689800
      5 C11         1.4390    0.0650   -2.4740 c3        1 2SJ      0.146700
      6 C14         1.1150   -1.4040   -2.7150 cc        1 2SJ      0.009800
      7 C15         2.0070   -2.3390   -2.3090 cd        1 2SJ     -0.275200
      8 C10         2.2590    0.5960   -3.6610 c3        1 2SJ     -0.090400
      9 C9          1.5610    0.2360   -4.9650 c3        1 2SJ     -0.036100
     10 C8          0.0870    0.4470   -4.8850 ca        1 2SJ     -0.034300
     11 C7         -0.4840    1.5100   -5.5840 ca        1 2SJ     -0.222000
     12 C5         -1.8600    1.7490   -5.4920 ca        1 2SJ      0.161100
     13 C3         -2.6760    0.9260   -4.6810 ca        1 2SJ      0.013100
     14 C1         -2.0940   -0.1470   -3.9820 ca        1 2SJ      0.171100
     15 O1         -2.7740   -1.0190   -3.1640 os        1 2SJ     -0.341900
     16 C2         -4.0850   -0.6640   -2.7210 c3        1 2SJ      0.122700
     17 O2         -4.0070    1.2400   -4.4780 os        1 2SJ     -0.331900
     18 C4         -4.8400    1.0690   -5.6300 c3        1 2SJ      0.109700
     19 O3         -2.5130    2.7620   -6.1500 os        1 2SJ     -0.306900
     20 C6         -1.7240    3.5850   -7.0090 c3        1 2SJ      0.106700
     21 C22        -0.7040   -0.4080   -4.0970 ca        1 2SJ     -0.153800
     22 C21        -0.1050   -1.5950   -3.4560 cc        1 2SJ     -0.055200
     23 C20        -0.7370   -2.7910   -3.6470 cd        1 2SJ      0.001000
     24 C19        -0.4120   -4.0950   -3.2060 cd        1 2SJ     -0.159000
     25 C17         0.7500   -4.5440   -2.6560 cc        1 2SJ      0.073900
     26 C16         1.9820   -3.7910   -2.3690 c         1 2SJ      0.534500
     27 O5          3.0180   -4.4310   -2.1000 o         1 2SJ     -0.546100
     28 O6          0.7780   -5.8810   -2.3480 oh        1 2SJ     -0.477100
     29 H1          0.2190   -1.0240    1.4150 hc        1 2SJ      0.117033
     30 H2          2.0400   -1.0580    1.4310 hc        1 2SJ      0.117033
     31 H3          1.1240   -1.8880    0.0840 hc        1 2SJ      0.117033
     32 H4          2.5050    1.3040   -1.2140 hn        1 2SJ      0.456300
     33 H5          0.4670    0.6570   -2.4110 hx        1 2SJ      0.141700
     34 H6          2.9810   -2.0150   -1.8860 ha        1 2SJ      0.128000
     35 H7          2.3560    1.7110   -3.5810 hc        1 2SJ      0.068700
     36 H8          3.2880    0.1490   -3.6620 hc        1 2SJ      0.068700
     37 H9          1.7690   -0.8400   -5.2180 hc        1 2SJ      0.080700
     38 H10         2.0060    0.8620   -5.7860 hc        1 2SJ      0.080700
     39 H11         0.1520    2.1550   -6.2080 ha        1 2SJ      0.153000
     40 H12        -4.0990    0.3700   -2.3020 h1        1 2SJ      0.059033
     41 H13        -4.2950   -1.4270   -1.9290 h1        1 2SJ      0.059033
     42 H14        -4.8100   -0.7560   -3.5660 h1        1 2SJ      0.059033
     43 H15        -4.8380   -0.0000   -5.9510 h1        1 2SJ      0.053700
     44 H16        -4.5020    1.7330   -6.4610 h1        1 2SJ      0.053700
     45 H17        -5.8510    1.3760   -5.2610 h1        1 2SJ      0.053700
     46 H18        -0.9480    4.1320   -6.4220 h1        1 2SJ      0.056367
     47 H19        -2.4770    4.2990   -7.4320 h1        1 2SJ      0.056367
     48 H20        -1.2560    2.9750   -7.8190 h1        1 2SJ      0.056367
     49 H21        -1.6850   -2.7540   -4.2340 ha        1 2SJ      0.169000
     50 H22        -1.2040   -4.8580   -3.3670 ha        1 2SJ      0.176000
     51 H23         1.6900   -6.1390   -2.1140 ho        1 2SJ      0.459000
     52 H121        2.8940   -0.3030   -1.0020 hn        1 2SJ      0.456300
@<TRIPOS>BOND
     1    1    2 2   
     2    2    3 1   
     3    2    4 1   
     4    3   29 1   
     5    3   30 1   
     6    3   31 1   
     7    4    5 1   
     8    4   32 1   
     9    4   52 1   
    10    5    6 1   
    11    5    8 1   
    12    5   33 1   
    13    6    7 2   
    14    6   22 1   
    15    7   26 1   
    16    7   34 1   
    17    8    9 1   
    18    8   35 1   
    19    8   36 1   
    20    9   10 1   
    21    9   37 1   
    22    9   38 1   
    23   10   11 ar  
    24   10   21 ar  
    25   11   12 ar  
    26   11   39 1   
    27   12   13 ar  
    28   12   19 1   
    29   13   14 ar  
    30   13   17 1   
    31   14   15 1   
    32   14   21 ar  
    33   15   16 1   
    34   16   40 1   
    35   16   41 1   
    36   16   42 1   
    37   17   18 1   
    38   18   43 1   
    39   18   44 1   
    40   18   45 1   
    41   19   20 1   
    42   20   46 1   
    43   20   47 1   
    44   20   48 1   
    45   21   22 1   
    46   22   23 2   
    47   23   24 1   
    48   23   49 1   
    49   24   25 2   
    50   24   50 1   
    51   25   26 1   
    52   25   28 1   
    53   26   27 2   
    54   28   51 1   
@<TRIPOS>SUBSTRUCTURE
     1 2SJ         1 TEMP              0 ****  ****    0 ROOT
