@<TRIPOS>MOLECULE
2SJ
   52    54     1     0     0
SMALL
bcc


@<TRIPOS>ATOM
      1 O4          0.4940    1.2670    0.2040 o         1 2SJ     -0.402100
      2 C12         1.1460    0.2560    0.0060 c         1 2SJ      0.561100
      3 C13         1.1340   -1.0280    0.7600 c3        1 2SJ     -0.188100
      4 N1          2.1210    0.3350   -1.1590 ny        1 2SJ     -0.689800
      5 C11         1.4370    0.0580   -2.4770 c3        1 2SJ      0.146700
      6 C14         1.1120   -1.4100   -2.7270 cc        1 2SJ      0.009800
      7 C15         2.0040   -2.3470   -2.3270 cd        1 2SJ     -0.275200
      8 C10         2.2560    0.5960   -3.6600 c3        1 2SJ     -0.090400
      9 C9          1.5580    0.2440   -4.9660 c3        1 2SJ     -0.036100
     10 C8          0.0830    0.4550   -4.8840 ca        1 2SJ     -0.034300
     11 C7         -0.4880    1.5220   -5.5760 ca        1 2SJ     -0.222000
     12 C5         -1.8640    1.7610   -5.4820 ca        1 2SJ      0.161100
     13 C3         -2.6800    0.9330   -4.6750 ca        1 2SJ      0.013100
     14 C1         -2.0970   -0.1440   -3.9830 ca        1 2SJ      0.171100
     15 O1         -2.7760   -1.0210   -3.1700 os        1 2SJ     -0.341900
     16 C2         -4.0870   -0.6690   -2.7250 c3        1 2SJ      0.122700
     17 O2         -4.0100    1.2460   -4.4700 os        1 2SJ     -0.331900
     18 C4         -4.8440    1.0830   -5.6220 c3        1 2SJ      0.109700
     19 O3         -2.5170    2.7780   -6.1330 os        1 2SJ     -0.306900
     20 C6         -1.7290    3.6060   -6.9880 c3        1 2SJ      0.106700
     21 C22        -0.7070   -0.4050   -4.1010 ca        1 2SJ     -0.153800
     22 C21        -0.1080   -1.5950   -3.4680 cc        1 2SJ     -0.055200
     23 C20        -0.7410   -2.7910   -3.6660 cd        1 2SJ      0.001000
     24 C19        -0.4150   -4.0970   -3.2330 cd        1 2SJ     -0.159000
     25 C17         0.7480   -4.5500   -2.6870 cc        1 2SJ      0.073900
     26 C16         1.9800   -3.7990   -2.3970 c         1 2SJ      0.534500
     27 O5          3.0160   -4.4410   -2.1320 o         1 2SJ     -0.546100
     28 O6          0.7750   -5.8880   -2.3870 oh        1 2SJ     -0.477100
     29 H1          1.1210   -1.9100    0.0680 hc        1 2SJ      0.117033
     30 H2          0.2160   -1.0540    1.4060 hc        1 2SJ      0.117033
     31 H3          2.0380   -1.0900    1.4200 hc        1 2SJ      0.117033
     32 H4          2.8920   -0.3200   -1.0080 hn        1 2SJ      0.456300
     33 H5          0.4650    0.6490   -2.4090 hx        1 2SJ      0.141700
     34 H6          2.9790   -2.0260   -1.9030 ha        1 2SJ      0.128000
     35 H7          2.3530    1.7110   -3.5740 hc        1 2SJ      0.068700
     36 H8          3.2850    0.1500   -3.6650 hc        1 2SJ      0.068700
     37 H9          2.0020    0.8750   -5.7840 hc        1 2SJ      0.080700
     38 H10         1.7650   -0.8300   -5.2260 hc        1 2SJ      0.080700
     39 H11         0.1480    2.1710   -6.1960 ha        1 2SJ      0.153000
     40 H12        -4.1020    0.3630   -2.2990 h1        1 2SJ      0.059033
     41 H13        -4.8120   -0.7560   -3.5710 h1        1 2SJ      0.059033
     42 H14        -4.2970   -1.4380   -1.9380 h1        1 2SJ      0.059033
     43 H15        -4.8430    0.0150   -5.9500 h1        1 2SJ      0.053700
     44 H16        -5.8550    1.3880   -5.2500 h1        1 2SJ      0.053700
     45 H17        -4.5060    1.7510   -6.4500 h1        1 2SJ      0.053700
     46 H18        -2.4810    4.3230   -7.4060 h1        1 2SJ      0.056367
     47 H19        -1.2610    3.0010   -7.8010 h1        1 2SJ      0.056367
     48 H20        -0.9520    4.1490   -6.3970 h1        1 2SJ      0.056367
     49 H21        -1.6880   -2.7500   -4.2520 ha        1 2SJ      0.169000
     50 H22        -1.2070   -4.8590   -3.3980 ha        1 2SJ      0.176000
     51 H23         1.6870   -6.1490   -2.1550 ho        1 2SJ      0.459000
     52 H121        2.5040    1.2880   -1.2100 hn        1 2SJ      0.456300
@<TRIPOS>BOND
     1    1    2 2   
     2    2    3 1   
     3    2    4 1   
     4    3   29 1   
     5    3   30 1   
     6    3   31 1   
     7    4    5 1   
     8    4   32 1   
     9    4   52 1   
    10    5    6 1   
    11    5    8 1   
    12    5   33 1   
    13    6    7 2   
    14    6   22 1   
    15    7   26 1   
    16    7   34 1   
    17    8    9 1   
    18    8   35 1   
    19    8   36 1   
    20    9   10 1   
    21    9   37 1   
    22    9   38 1   
    23   10   11 ar  
    24   10   21 ar  
    25   11   12 ar  
    26   11   39 1   
    27   12   13 ar  
    28   12   19 1   
    29   13   14 ar  
    30   13   17 1   
    31   14   15 1   
    32   14   21 ar  
    33   15   16 1   
    34   16   40 1   
    35   16   41 1   
    36   16   42 1   
    37   17   18 1   
    38   18   43 1   
    39   18   44 1   
    40   18   45 1   
    41   19   20 1   
    42   20   46 1   
    43   20   47 1   
    44   20   48 1   
    45   21   22 1   
    46   22   23 2   
    47   23   24 1   
    48   23   49 1   
    49   24   25 2   
    50   24   50 1   
    51   25   26 1   
    52   25   28 1   
    53   26   27 2   
    54   28   51 1   
@<TRIPOS>SUBSTRUCTURE
     1 2SJ         1 TEMP              0 ****  ****    0 ROOT
