@<TRIPOS>MOLECULE
2SJ
   52    54     1     0     0
SMALL
bcc


@<TRIPOS>ATOM
      1 O4          0.3780    1.3120    0.2330 o         1 2SJ     -0.402100
      2 C12         1.0400    0.3020    0.0620 c         1 2SJ      0.561100
      3 C13         1.0180   -0.9720    0.8300 c3        1 2SJ     -0.188100
      4 N1          2.0420    0.3740   -1.0810 n4        1 2SJ     -0.689800
      5 C11         1.3910    0.0790   -2.4110 c3        1 2SJ      0.146700
      6 C14         1.0790   -1.3920   -2.6520 cc        1 2SJ      0.009800
      7 C15         1.9650   -2.3210   -2.2210 cd        1 2SJ     -0.275200
      8 C10         2.2360    0.6080   -3.5810 c3        1 2SJ     -0.090400
      9 C9          1.5700    0.2390   -4.8990 c3        1 2SJ     -0.036100
     10 C8          0.0930    0.4440   -4.8540 ca        1 2SJ     -0.034300
     11 C7         -0.4650    1.5010   -5.5710 ca        1 2SJ     -0.222000
     12 C5         -1.8440    1.7350   -5.5130 ca        1 2SJ      0.161100
     13 C3         -2.6760    0.9120   -4.7160 ca        1 2SJ      0.013100
     14 C1         -2.1050   -0.1550   -3.9990 ca        1 2SJ      0.171100
     15 O1         -2.8000   -1.0260   -3.1930 os        1 2SJ     -0.341900
     16 C2         -4.1230   -0.6750   -2.7830 c3        1 2SJ      0.122700
     17 O2         -4.0120    1.2210   -4.5460 os        1 2SJ     -0.331900
     18 C4         -4.8180    1.0420   -5.7160 c3        1 2SJ      0.109700
     19 O3         -2.4860    2.7410   -6.1900 os        1 2SJ     -0.306900
     20 C6         -1.6810    3.5640   -7.0350 c3        1 2SJ      0.106700
     21 C22        -0.7110   -0.4110   -4.0810 ca        1 2SJ     -0.153800
     22 C21        -0.1230   -1.5920   -3.4200 cc        1 2SJ     -0.055200
     23 C20        -0.7460   -2.7920   -3.6210 cd        1 2SJ      0.001000
     24 C19        -0.4250   -4.0920   -3.1650 cd        1 2SJ     -0.159000
     25 C17         0.7260   -4.5330   -2.5860 cc        1 2SJ      0.073900
     26 C16         1.9480   -3.7730   -2.2750 c         1 2SJ      0.534500
     27 O5          2.9800   -4.4080   -1.9780 o         1 2SJ     -0.546100
     28 O6          0.7520   -5.8680   -2.2710 oh        1 2SJ     -0.477100
     29 H1          1.9070   -1.0210    1.5120 hc        1 2SJ      0.117033
     30 H2          1.0260   -1.8620    0.1490 hc        1 2SJ      0.117033
     31 H3          0.0860   -0.9960    1.4550 hc        1 2SJ      0.117033
     32 H4          2.8130   -0.2750   -0.9040 hn        1 2SJ      0.456300
     33 H5          0.4150    0.6670   -2.3730 hx        1 2SJ      0.141700
     34 H6          2.9270   -1.9910   -1.7770 ha        1 2SJ      0.128000
     35 H7          2.3260    1.7240   -3.5040 hc        1 2SJ      0.068700
     36 H8          3.2660    0.1660   -3.5560 hc        1 2SJ      0.068700
     37 H9          2.0310    0.8630   -5.7120 hc        1 2SJ      0.080700
     38 H10         1.7880   -0.8370   -5.1420 hc        1 2SJ      0.080700
     39 H11         0.1820    2.1460   -6.1830 ha        1 2SJ      0.153000
     40 H12        -4.3480   -1.4360   -1.9920 h1        1 2SJ      0.059033
     41 H13        -4.8270   -0.7740   -3.6440 h1        1 2SJ      0.059033
     42 H14        -4.1520    0.3610   -2.3690 h1        1 2SJ      0.059033
     43 H15        -4.8040   -0.0290   -6.0320 h1        1 2SJ      0.053700
     44 H16        -4.4630    1.7030   -6.5430 h1        1 2SJ      0.053700
     45 H17        -5.8380    1.3460   -5.3720 h1        1 2SJ      0.053700
     46 H18        -2.4270    4.2730   -7.4790 h1        1 2SJ      0.056367
     47 H19        -0.9210    4.1170   -6.4330 h1        1 2SJ      0.056367
     48 H20        -1.1920    2.9520   -7.8310 h1        1 2SJ      0.056367
     49 H21        -1.6790   -2.7610   -4.2290 ha        1 2SJ      0.169000
     50 H22        -1.2100   -4.8600   -3.3410 ha        1 2SJ      0.176000
     51 H23         1.6590   -6.1220   -2.0140 ho        1 2SJ      0.459000
     52 H121        2.4210    1.3290   -1.1330 hn        1 2SJ      0.456300
@<TRIPOS>BOND
     1    1    2 2   
     2    2    3 1   
     3    2    4 1   
     4    3   29 1   
     5    3   30 1   
     6    3   31 1   
     7    4    5 1   
     8    4   32 1   
     9    4   52 1   
    10    5    6 1   
    11    5    8 1   
    12    5   33 1   
    13    6    7 2   
    14    6   22 1   
    15    7   26 1   
    16    7   34 1   
    17    8    9 1   
    18    8   35 1   
    19    8   36 1   
    20    9   10 1   
    21    9   37 1   
    22    9   38 1   
    23   10   11 ar  
    24   10   21 ar  
    25   11   12 ar  
    26   11   39 1   
    27   12   13 ar  
    28   12   19 1   
    29   13   14 ar  
    30   13   17 1   
    31   14   15 1   
    32   14   21 ar  
    33   15   16 1   
    34   16   40 1   
    35   16   41 1   
    36   16   42 1   
    37   17   18 1   
    38   18   43 1   
    39   18   44 1   
    40   18   45 1   
    41   19   20 1   
    42   20   46 1   
    43   20   47 1   
    44   20   48 1   
    45   21   22 1   
    46   22   23 2   
    47   23   24 1   
    48   23   49 1   
    49   24   25 2   
    50   24   50 1   
    51   25   26 1   
    52   25   28 1   
    53   26   27 2   
    54   28   51 1   
@<TRIPOS>SUBSTRUCTURE
     1 2SJ         1 TEMP              0 ****  ****    0 ROOT
