@<TRIPOS>MOLECULE
2SK
   38    39     1     0     0
SMALL
bcc


@<TRIPOS>ATOM
      1 C5         -0.0530   -0.0280    0.1280 c3        1 2SK      0.099500
      2 N5         -0.5610    0.4800   -1.1820 n4        1 2SK     -0.752000
      3 C4          1.4870   -0.2880    0.1240 c3        1 2SK      0.106100
      4 O4          2.1410    0.5410   -0.8080 oh        1 2SK     -0.608800
      5 C3          1.9240   -0.0110    1.5790 c3        1 2SK      0.078100
      6 O3          3.2130    0.5620    1.6000 oh        1 2SK     -0.588800
      7 C2          0.9460    1.0630    2.1130 c3        1 2SK      0.156100
      8 O2          1.4440    2.3650    1.8650 oh        1 2SK     -0.601800
      9 C1         -0.3450    0.9390    1.2890 c3        1 2SK     -0.047600
     10 S6         -1.7070    0.2290    2.1670 ss        1 2SK     -0.268200
     11 C7         -2.2600    1.5140    3.2240 c3        1 2SK     -0.041000
     12 C8         -0.6630   -0.6060   -2.2160 c3        1 2SK      0.178100
     13 C9         -1.1250   -0.0500   -3.5180 ca        1 2SK     -0.192300
     14 C14        -0.1980    0.5190   -4.3990 ca        1 2SK     -0.099000
     15 C13        -0.6230    1.0050   -5.6340 ca        1 2SK     -0.120000
     16 C10        -2.4760   -0.1320   -3.8760 ca        1 2SK     -0.099000
     17 C11        -2.8950    0.3550   -5.1130 ca        1 2SK     -0.120000
     18 C12        -1.9700    0.9240   -5.9910 ca        1 2SK     -0.078000
     19 H5         -0.5730   -1.0160    0.3270 hx        1 2SK      0.123700
     20 HN5         0.0940    1.1980   -1.5280 hn        1 2SK      0.458800
     21 H4          1.6990   -1.3430   -0.1970 h1        1 2SK      0.097700
     22 HO4         2.5430    1.2890   -0.3330 ho        1 2SK      0.456000
     23 H3          1.8740   -0.9470    2.1930 h1        1 2SK      0.087700
     24 HO3         3.8550   -0.1510    1.4840 ho        1 2SK      0.439000
     25 H2          0.7530    0.9170    3.2090 h1        1 2SK      0.089700
     26 HO2         2.2850    2.4520    2.3400 ho        1 2SK      0.446000
     27 H1         -0.6180    1.9730    0.9410 h1        1 2SK      0.110700
     28 H71        -3.1250    1.0810    3.7830 h1        1 2SK      0.085033
     29 H72        -1.4770    1.8240    3.9520 h1        1 2SK      0.085033
     30 H73        -2.6010    2.4080    2.6580 h1        1 2SK      0.085033
     31 H81         0.3650   -1.0620   -2.3140 hx        1 2SK      0.107700
     32 H82        -1.3800   -1.3860   -1.8310 hx        1 2SK      0.107700
     33 H14         0.8680    0.5690   -4.1270 ha        1 2SK      0.142000
     34 H13         0.1070    1.4480   -6.3310 ha        1 2SK      0.159000
     35 H10        -3.2060   -0.5920   -3.1930 ha        1 2SK      0.142000
     36 H11        -3.9570    0.2840   -5.3990 ha        1 2SK      0.159000
     37 H12        -2.3040    1.3050   -6.9710 ha        1 2SK      0.160000
     38 H52        -1.4820    0.9130   -1.0470 hn        1 2SK      0.458800
@<TRIPOS>BOND
     1    1    2 1   
     2    1    3 1   
     3    1    9 1   
     4    1   19 1   
     5    2   12 1   
     6    2   20 1   
     7    2   38 1   
     8    3    4 1   
     9    3    5 1   
    10    3   21 1   
    11    4   22 1   
    12    5    6 1   
    13    5    7 1   
    14    5   23 1   
    15    6   24 1   
    16    7    8 1   
    17    7    9 1   
    18    7   25 1   
    19    8   26 1   
    20    9   10 1   
    21    9   27 1   
    22   10   11 1   
    23   11   28 1   
    24   11   29 1   
    25   11   30 1   
    26   12   13 1   
    27   12   31 1   
    28   12   32 1   
    29   13   14 ar  
    30   13   16 ar  
    31   14   15 ar  
    32   14   33 1   
    33   15   18 ar  
    34   15   34 1   
    35   16   17 ar  
    36   16   35 1   
    37   17   18 ar  
    38   17   36 1   
    39   18   37 1   
@<TRIPOS>SUBSTRUCTURE
     1 2SK         1 TEMP              0 ****  ****    0 ROOT
