@<TRIPOS>MOLECULE
2SK
   38    39     1     0     0
SMALL
bcc


@<TRIPOS>ATOM
      1 C5         -0.0590   -0.0250    0.1310 c3        1 2SK      0.099500
      2 N5         -0.5640    0.4820   -1.1810 n4        1 2SK     -0.752000
      3 C4          1.4800   -0.2890    0.1300 c3        1 2SK      0.106100
      4 O4          2.1380    0.5350   -0.8030 oh        1 2SK     -0.608800
      5 C3          1.9150   -0.0110    1.5840 c3        1 2SK      0.078100
      6 O3          3.2060    0.5580    1.6070 oh        1 2SK     -0.588800
      7 C2          0.9400    1.0670    2.1150 c3        1 2SK      0.156100
      8 O2          1.4430    2.3670    1.8650 oh        1 2SK     -0.601800
      9 C1         -0.3510    0.9450    1.2890 c3        1 2SK     -0.047600
     10 S6         -1.7150    0.2400    2.1660 ss        1 2SK     -0.268200
     11 C7         -2.2660    1.5280    3.2210 c3        1 2SK     -0.041000
     12 C8         -0.6650   -0.6040   -2.2140 c3        1 2SK      0.178100
     13 C9         -1.1230   -0.0490   -3.5180 ca        1 2SK     -0.192300
     14 C14        -0.1920    0.5200   -4.3960 ca        1 2SK     -0.099000
     15 C13        -0.6140    1.0060   -5.6320 ca        1 2SK     -0.120000
     16 C10        -2.4720   -0.1310   -3.8810 ca        1 2SK     -0.099000
     17 C11        -2.8870    0.3550   -5.1200 ca        1 2SK     -0.120000
     18 C12        -1.9600    0.9240   -5.9940 ca        1 2SK     -0.078000
     19 H5         -0.5830   -1.0120    0.3310 hx        1 2SK      0.123700
     20 HN5         0.0940    1.1990   -1.5260 hn        1 2SK      0.458800
     21 H4          1.6890   -1.3460   -0.1890 h1        1 2SK      0.097700
     22 HO4         2.5420    1.2830   -0.3290 ho        1 2SK      0.456000
     23 H3          1.8620   -0.9460    2.2000 h1        1 2SK      0.087700
     24 HO3         3.8460   -0.1580    1.4930 ho        1 2SK      0.439000
     25 H2          0.7450    0.9230    3.2120 h1        1 2SK      0.089700
     26 HO2         2.2830    2.4520    2.3410 ho        1 2SK      0.446000
     27 H1         -0.6200    1.9790    0.9400 h1        1 2SK      0.110700
     28 H71        -3.1330    1.0980    3.7790 h1        1 2SK      0.085033
     29 H72        -1.4840    1.8370    3.9500 h1        1 2SK      0.085033
     30 H73        -2.6040    2.4220    2.6520 h1        1 2SK      0.085033
     31 H81         0.3620   -1.0640   -2.3090 hx        1 2SK      0.107700
     32 H82        -1.3860   -1.3820   -1.8290 hx        1 2SK      0.107700
     33 H14         0.8730    0.5700   -4.1200 ha        1 2SK      0.142000
     34 H13         0.1190    1.4480   -6.3270 ha        1 2SK      0.159000
     35 H10        -3.2050   -0.5910   -3.2000 ha        1 2SK      0.142000
     36 H11        -3.9480    0.2850   -5.4090 ha        1 2SK      0.159000
     37 H12        -2.2900    1.3050   -6.9750 ha        1 2SK      0.160000
     38 H52        -1.4830    0.9170   -1.0480 hn        1 2SK      0.458800
@<TRIPOS>BOND
     1    1    2 1   
     2    1    3 1   
     3    1    9 1   
     4    1   19 1   
     5    2   12 1   
     6    2   20 1   
     7    2   38 1   
     8    3    4 1   
     9    3    5 1   
    10    3   21 1   
    11    4   22 1   
    12    5    6 1   
    13    5    7 1   
    14    5   23 1   
    15    6   24 1   
    16    7    8 1   
    17    7    9 1   
    18    7   25 1   
    19    8   26 1   
    20    9   10 1   
    21    9   27 1   
    22   10   11 1   
    23   11   28 1   
    24   11   29 1   
    25   11   30 1   
    26   12   13 1   
    27   12   31 1   
    28   12   32 1   
    29   13   14 ar  
    30   13   16 ar  
    31   14   15 ar  
    32   14   33 1   
    33   15   18 ar  
    34   15   34 1   
    35   16   17 ar  
    36   16   35 1   
    37   17   18 ar  
    38   17   36 1   
    39   18   37 1   
@<TRIPOS>SUBSTRUCTURE
     1 2SK         1 TEMP              0 ****  ****    0 ROOT
