@<TRIPOS>MOLECULE
2SK
   37    36     1     0     0
SMALL
bcc


@<TRIPOS>ATOM
      1 C5          0.4120   -1.2520    0.1680 c3        1 2SK     -0.038000
      2 N5          0.1050    0.0910   -0.3100 n3        1 2SK     -0.288000
      3 C4          2.0300   -1.4590    0.2700 c3        1 2SK     -0.030000
      4 O4          2.6760   -0.7770   -0.7970 oh        1 2SK     -0.313000
      5 C3          2.4070   -0.9200    1.4510 c3        1 2SK     -0.040000
      6 O3          2.7750    0.4230    1.2790 oh        1 2SK     -0.326000
      7 C2          1.1250   -1.0250    2.3810 c3        1 2SK     -0.005000
      8 O2          0.8790    0.1360    2.9510 oh        1 2SK     -0.327000
      9 C1         -0.0680   -1.4230    1.4200 c3        1 2SK     -0.228000
     10 S6         -0.5340   -3.1750    1.6910 ss        1 2SK      0.079000
     11 C7         -1.9630   -3.2720    2.8120 c3        1 2SK     -0.342000
     12 C8         -0.7440    0.0120   -1.4130 c3        1 2SK     -0.042000
     13 C9         -1.0330    1.4390   -1.9490 c2        1 2SK     -0.091000
     14 C14        -0.3340    1.9160   -3.0350 c2        1 2SK     -0.123000
     15 C13        -0.6580    3.1680   -3.5810 c1        1 2SK     -0.134000
     16 C10        -2.0910    2.2210   -1.3770 c1        1 2SK     -0.110000
     17 C11        -2.4140    3.4800   -1.9280 c1        1 2SK     -0.131000
     18 C12        -1.7210    3.9530   -3.0050 c1        1 2SK     -0.131000
     19 H5          0.0720   -1.8330   -0.3620 h1        1 2SK      0.129000
     20 HN5         0.8350    0.4940   -0.5350 hn        1 2SK      0.150000
     21 H4          2.2790   -2.5110    0.2450 h1        1 2SK      0.128000
     22 HO4         3.4170   -1.1750   -0.9890 ho        1 2SK      0.214000
     23 H3          3.2150   -1.4770    1.8680 h1        1 2SK      0.132000
     24 HO3         3.5290    0.5920    1.7510 ho        1 2SK      0.216000
     25 H2          1.2710   -1.7940    3.1370 h1        1 2SK      0.107000
     26 HO2         1.2420    0.1440    3.8100 ho        1 2SK      0.214000
     27 H1         -0.8290   -0.8460    1.5710 h1        1 2SK      0.155000
     28 H71        -1.6300   -3.2430    3.8070 h1        1 2SK      0.105667
     29 H72        -2.3950   -4.0220    2.6710 h1        1 2SK      0.105667
     30 H73        -2.5940   -2.4740    2.6340 h1        1 2SK      0.105667
     31 H81        -0.3170   -0.5230   -2.1190 h1        1 2SK      0.091500
     32 H82        -1.6010   -0.4210   -1.1390 h1        1 2SK      0.091500
     33 H14         0.4390    1.3410   -3.4550 ha        1 2SK      0.135000
     34 H13        -0.1390    3.5260   -4.3900 ha        1 2SK      0.131000
     35 H10        -2.5700    1.8900   -0.6310 ha        1 2SK      0.144000
     36 H11        -3.1410    4.0200   -1.5350 ha        1 2SK      0.131500
     37 H12        -1.9350    4.7780   -3.3650 ha        1 2SK      0.131500
@<TRIPOS>BOND
     1    1    2 1   
     2    1    3 1   
     3    1    9 1   
     4    1   19 1   
     5    2   12 1   
     6    2   20 1   
     7    3    4 1   
     8    3    5 1   
     9    3   21 1   
    10    4   22 1   
    11    5    6 1   
    12    5    7 1   
    13    5   23 1   
    14    6   24 1   
    15    7    8 1   
    16    7    9 1   
    17    7   25 1   
    18    8   26 1   
    19    9   10 1   
    20    9   27 1   
    21   10   11 1   
    22   11   28 1   
    23   11   29 1   
    24   11   30 1   
    25   12   13 1   
    26   12   31 1   
    27   12   32 1   
    28   13   14 1   
    29   13   16 1   
    30   14   15 1   
    31   14   33 1   
    32   15   34 1   
    33   16   35 1   
    34   17   18 1   
    35   17   36 1   
    36   18   37 1   
@<TRIPOS>SUBSTRUCTURE
     1 2SK         1 TEMP              0 ****  ****    0 ROOT
