@<TRIPOS>MOLECULE
2SK
   37    38     1     0     0
SMALL
bcc


@<TRIPOS>ATOM
      1 C5         -0.7800    0.0810   -0.6130 c3        1 2SK      0.201500
      2 N5          0.5010    0.0800    0.0700 n3        1 2SK     -0.804200
      3 C4         -1.3110   -1.3090   -1.0680 c3        1 2SK      0.108100
      4 O4         -0.9180   -2.3340   -0.1720 oh        1 2SK     -0.590800
      5 C3         -2.8500   -1.1580   -1.0340 c3        1 2SK      0.075100
      6 O3         -3.4690   -2.4200   -0.9380 oh        1 2SK     -0.596800
      7 C2         -3.1120   -0.2350    0.1770 c3        1 2SK      0.123100
      8 O2         -3.2440   -1.0090    1.3550 oh        1 2SK     -0.601800
      9 C1         -1.9000    0.7010    0.2580 c3        1 2SK     -0.040600
     10 S6         -2.2200    2.3120   -0.4090 ss        1 2SK     -0.291200
     11 C7         -3.0650    3.1250    0.8940 c3        1 2SK     -0.043000
     12 C8          1.5470   -0.6160   -0.6590 c3        1 2SK      0.206100
     13 C9          2.9240   -0.2680   -0.1790 ca        1 2SK     -0.088300
     14 C14         3.6860   -1.2090    0.5180 ca        1 2SK     -0.119500
     15 C13         4.9780   -0.8910    0.9380 ca        1 2SK     -0.130000
     16 C10         3.4600    0.9980   -0.4430 ca        1 2SK     -0.119500
     17 C11         4.7500    1.3140   -0.0210 ca        1 2SK     -0.130000
     18 C12         5.5110    0.3690    0.6690 ca        1 2SK     -0.127000
     19 H5         -0.7230    0.6900   -1.5750 h1        1 2SK      0.035700
     20 HN5         0.7700    1.0260    0.2740 hn        1 2SK      0.370800
     21 H4         -0.9380   -1.5470   -2.0990 h1        1 2SK      0.052700
     22 HO4        -1.3270   -3.1470   -0.5050 ho        1 2SK      0.413000
     23 H3         -3.2310   -0.7010   -1.9840 h1        1 2SK      0.090700
     24 HO3        -3.5980   -2.6270   -0.0010 ho        1 2SK      0.422000
     25 H2         -4.0820    0.3200    0.0840 h1        1 2SK      0.098700
     26 HO2        -2.3850   -1.4290    1.5200 ho        1 2SK      0.425000
     27 H1         -1.5910    0.7960    1.3310 h1        1 2SK      0.104700
     28 H71        -3.2800    4.1550    0.5260 h1        1 2SK      0.067367
     29 H72        -4.0240    2.6190    1.1460 h1        1 2SK      0.067367
     30 H73        -2.4440    3.1890    1.8150 h1        1 2SK      0.067367
     31 H81         1.3530   -1.7200   -0.5210 h1        1 2SK      0.046200
     32 H82         1.5020   -0.4020   -1.7710 h1        1 2SK      0.046200
     33 H14         3.2640   -2.2010    0.7400 ha        1 2SK      0.133500
     34 H13         5.5750   -1.6360    1.4840 ha        1 2SK      0.131500
     35 H10         2.8630    1.7420   -0.9900 ha        1 2SK      0.133500
     36 H11         5.1680    2.3090   -0.2320 ha        1 2SK      0.131500
     37 H12         6.5290    0.6190    1.0010 ha        1 2SK      0.131000
@<TRIPOS>BOND
     1    1    2 1   
     2    1    3 1   
     3    1    9 1   
     4    1   19 1   
     5    2   12 1   
     6    2   20 1   
     7    3    4 1   
     8    3    5 1   
     9    3   21 1   
    10    4   22 1   
    11    5    6 1   
    12    5    7 1   
    13    5   23 1   
    14    6   24 1   
    15    7    8 1   
    16    7    9 1   
    17    7   25 1   
    18    8   26 1   
    19    9   10 1   
    20    9   27 1   
    21   10   11 1   
    22   11   28 1   
    23   11   29 1   
    24   11   30 1   
    25   12   13 1   
    26   12   31 1   
    27   12   32 1   
    28   13   14 ar  
    29   13   16 ar  
    30   14   15 ar  
    31   14   33 1   
    32   15   18 ar  
    33   15   34 1   
    34   16   17 ar  
    35   16   35 1   
    36   17   18 ar  
    37   17   36 1   
    38   18   37 1   
@<TRIPOS>SUBSTRUCTURE
     1 2SK         1 TEMP              0 ****  ****    0 ROOT
