@<TRIPOS>MOLECULE
2SK
   38    39     1     0     0
SMALL
bcc


@<TRIPOS>ATOM
      1 C5         -0.0570   -0.0300    0.1280 c3        1 2SK      0.099500
      2 N5         -0.5620    0.4830   -1.1820 ny        1 2SK     -0.752000
      3 C4          1.4820   -0.2980    0.1250 c3        1 2SK      0.106100
      4 O4          2.1400    0.5290   -0.8050 oh        1 2SK     -0.608800
      5 C3          1.9180   -0.0250    1.5800 c3        1 2SK      0.078100
      6 O3          3.2100    0.5410    1.6040 oh        1 2SK     -0.588800
      7 C2          0.9460    1.0520    2.1160 c3        1 2SK      0.156100
      8 O2          1.4510    2.3520    1.8710 oh        1 2SK     -0.601800
      9 C1         -0.3460    0.9360    1.2900 c3        1 2SK     -0.047600
     10 S6         -1.7120    0.2320    2.1650 ss        1 2SK     -0.268200
     11 C7         -2.2590    1.5180    3.2240 c3        1 2SK     -0.041000
     12 C8         -0.6670   -0.6000   -2.2180 c3        1 2SK      0.178100
     13 C9         -1.1250   -0.0400   -3.5190 ca        1 2SK     -0.192300
     14 C14        -0.1950    0.5280   -4.3980 ca        1 2SK     -0.099000
     15 C13        -0.6160    1.0190   -5.6320 ca        1 2SK     -0.120000
     16 C10        -2.4760   -0.1160   -3.8800 ca        1 2SK     -0.099000
     17 C11        -2.8910    0.3750   -5.1160 ca        1 2SK     -0.120000
     18 C12        -1.9640    0.9430   -5.9920 ca        1 2SK     -0.078000
     19 H5         -0.5830   -1.0160    0.3250 hx        1 2SK      0.123700
     20 HN5         0.0980    1.1990   -1.5260 hn        1 2SK      0.458800
     21 H4          1.6880   -1.3540   -0.1990 h1        1 2SK      0.097700
     22 HO4         2.5470    1.2750   -0.3280 ho        1 2SK      0.456000
     23 H3          1.8630   -0.9630    2.1930 h1        1 2SK      0.087700
     24 HO3         3.8490   -0.1750    1.4860 ho        1 2SK      0.439000
     25 H2          0.7510    0.9040    3.2120 h1        1 2SK      0.089700
     26 HO2         2.2910    2.4330    2.3470 ho        1 2SK      0.446000
     27 H1         -0.6120    1.9720    0.9440 h1        1 2SK      0.110700
     28 H71        -3.1270    1.0880    3.7810 h1        1 2SK      0.085033
     29 H72        -2.5950    2.4150    2.6590 h1        1 2SK      0.085033
     30 H73        -1.4760    1.8220    3.9540 h1        1 2SK      0.085033
     31 H81         0.3590   -1.0620   -2.3160 hx        1 2SK      0.107700
     32 H82        -1.3890   -1.3780   -1.8350 hx        1 2SK      0.107700
     33 H14         0.8710    0.5730   -4.1240 ha        1 2SK      0.142000
     34 H13         0.1160    1.4610   -6.3270 ha        1 2SK      0.159000
     35 H10        -3.2090   -0.5760   -3.1990 ha        1 2SK      0.142000
     36 H11        -3.9530    0.3090   -5.4040 ha        1 2SK      0.159000
     37 H12        -2.2940    1.3270   -6.9710 ha        1 2SK      0.160000
     38 H52        -1.4800    0.9190   -1.0470 hn        1 2SK      0.458800
@<TRIPOS>BOND
     1    1    2 1   
     2    1    3 1   
     3    1    9 1   
     4    1   19 1   
     5    2   12 1   
     6    2   20 1   
     7    2   38 1   
     8    3    4 1   
     9    3    5 1   
    10    3   21 1   
    11    4   22 1   
    12    5    6 1   
    13    5    7 1   
    14    5   23 1   
    15    6   24 1   
    16    7    8 1   
    17    7    9 1   
    18    7   25 1   
    19    8   26 1   
    20    9   10 1   
    21    9   27 1   
    22   10   11 1   
    23   11   28 1   
    24   11   29 1   
    25   11   30 1   
    26   12   13 1   
    27   12   31 1   
    28   12   32 1   
    29   13   14 ar  
    30   13   16 ar  
    31   14   15 ar  
    32   14   33 1   
    33   15   18 ar  
    34   15   34 1   
    35   16   17 ar  
    36   16   35 1   
    37   17   18 ar  
    38   17   36 1   
    39   18   37 1   
@<TRIPOS>SUBSTRUCTURE
     1 2SK         1 TEMP              0 ****  ****    0 ROOT
