@<TRIPOS>MOLECULE
2SM
   40    41     1     0     0
SMALL
bcc


@<TRIPOS>ATOM
      1 C24         1.1170   -0.0240   -1.3730 c3        1 2SM      0.120700
      2 O23         2.3490    0.7530   -1.2530 os        1 2SM     -0.228900
      3 C22         2.8760    0.9270   -0.0720 c2        1 2SM      0.515200
      4 O25         2.3090    0.3860    0.9770 os        1 2SM     -0.390800
      5 C4          4.0830    1.6970    0.2260 ca        1 2SM     -0.100000
      6 C3          4.8920    2.3700   -0.6640 ca        1 2SM      0.006000
      7 C2          6.0140    3.0670   -0.1530 ca        1 2SM     -0.049000
      8 C1          6.2780    3.0630    1.2050 ca        1 2SM     -0.082000
      9 C6          5.4380    2.3690    2.1050 ca        1 2SM      0.057000
     10 C5          4.3320    1.6770    1.6410 ca        1 2SM     -0.885000
     11 S7          3.2060    0.8390    2.5110 s6        1 2SM      2.074700
     12 O18         3.6010   -0.3840    2.9690 o         1 2SM     -0.534200
     13 O17         2.2750    1.5830    3.1520 o         1 2SM     -0.577800
     14 N8          3.3750   -2.9610    4.8820 n         1 2SM     -0.599000
     15 C9          2.1750   -3.5760    4.7440 c         1 2SM      0.660100
     16 O20         1.3090   -3.3580    3.8870 o         1 2SM     -0.505100
     17 N10         1.7330   -4.6020    5.8000 n4        1 2SM     -0.645500
     18 C11         2.4980   -5.8810    5.7130 ca        1 2SM      0.705900
     19 N12         1.7420   -7.0160    5.5960 nb        1 2SM     -0.667000
     20 C13         2.4330   -8.1880    5.5460 ca        1 2SM      0.501600
     21 C28         1.6840   -9.4720    5.4390 c3        1 2SM     -0.177400
     22 C14         3.8490   -8.2000    5.6110 ca        1 2SM     -0.303600
     23 C15         4.5180   -6.9690    5.7250 ca        1 2SM      0.464200
     24 N16         3.8640   -5.7880    5.7760 nb        1 2SM     -0.709000
     25 H24         0.3160    0.4750   -0.7770 h1        1 2SM      0.104700
     26 H24A        0.9290    0.0290   -2.4780 h1        1 2SM      0.104700
     27 H24B        1.3100   -1.0640   -1.0200 h1        1 2SM      0.104700
     28 H3          4.6780    2.3750   -1.7480 ha        1 2SM      0.195000
     29 H2          6.6710    3.6140   -0.8550 ha        1 2SM      0.196000
     30 H1          7.1530    3.6100    1.6040 ha        1 2SM      0.194000
     31 H6          5.6830    2.3990    3.1830 ha        1 2SM      0.173000
     32 HN8         4.0770   -3.2750    5.5130 hn        1 2SM      0.374000
     33 HN10        1.8430   -4.2240    6.7490 hn        1 2SM      0.488800
     34 H28         0.7580   -9.3670    4.8180 hc        1 2SM      0.091700
     35 H28A        2.3370  -10.2570    4.9820 hc        1 2SM      0.091700
     36 H28B        1.3800   -9.8090    6.4640 hc        1 2SM      0.091700
     37 H14         4.4080   -9.1490    5.5750 ha        1 2SM      0.201000
     38 H15         5.6240   -6.9060    5.7820 h4        1 2SM      0.072100
     39 H82         3.6330   -2.3210    4.1540 hn        1 2SM      0.374000
     40 H102        0.7290   -4.7920    5.6240 hn        1 2SM      0.488800
@<TRIPOS>BOND
     1    1    2 1   
     2    1   25 1   
     3    1   26 1   
     4    1   27 1   
     5    2    3 1   
     6    3    4 1   
     7    3    5 2   
     8    4   11 1   
     9    5    6 ar  
    10    5   10 ar  
    11    6    7 ar  
    12    6   28 1   
    13    7    8 ar  
    14    7   29 1   
    15    8    9 ar  
    16    8   30 1   
    17    9   10 ar  
    18    9   31 1   
    19   10   11 2   
    20   11   12 1   
    21   11   13 2   
    22   14   15 1   
    23   14   32 1   
    24   14   39 1   
    25   15   16 2   
    26   15   17 1   
    27   17   18 1   
    28   17   33 1   
    29   17   40 1   
    30   18   19 ar  
    31   18   24 ar  
    32   19   20 ar  
    33   20   21 1   
    34   20   22 ar  
    35   21   34 1   
    36   21   35 1   
    37   21   36 1   
    38   22   23 ar  
    39   22   37 1   
    40   23   24 ar  
    41   23   38 1   
@<TRIPOS>SUBSTRUCTURE
     1 2SM         1 TEMP              0 ****  ****    0 ROOT
