@<TRIPOS>MOLECULE
2SM
   38    34     1     0     0
SMALL
bcc


@<TRIPOS>ATOM
      1 C24        -2.4390   -2.2470    4.6600 c3        1 2SM     -0.066000
      2 O23        -2.5150   -1.4110    3.5270 os        1 2SM     -0.256000
      3 C22        -1.6790   -0.2840    3.5940 c2        1 2SM      0.340000
      4 O25        -0.5800   -0.3720    4.1040 o         1 2SM     -0.358000
      5 C4         -2.1620    1.0490    3.0640 c2        1 2SM      0.011000
      6 C3         -2.9920    1.8430    3.8400 c1        1 2SM     -0.105000
      7 C2         -3.4710    3.0430    3.3370 c1        1 2SM     -0.102000
      8 C1         -3.1200    3.4490    2.0590 c1        1 2SM     -0.102000
      9 C6         -2.2900    2.6550    1.2830 c1        1 2SM     -0.037000
     10 C5         -1.8110    1.4550    1.7850 c2        1 2SM     -0.764000
     11 S7         -0.7360    0.4460    0.7980 s4        1 2SM      2.064800
     12 O18         0.1990   -0.2740    1.6170 o         1 2SM     -0.531900
     13 O17        -1.4560   -0.6330    0.1820 o         1 2SM     -0.531900
     14 N8          0.0360    1.3660   -0.3230 n2        1 2SM     -0.881000
     15 C9          1.1630    0.8450   -1.0150 c2        1 2SM      0.446000
     16 O20         2.2860    1.1140   -0.6350 o         1 2SM     -0.321000
     17 N10         0.9780    0.0660   -2.1870 n         1 2SM     -0.327000
     18 C11         2.1030   -0.3970   -2.9160 c2        1 2SM      0.169000
     19 N12         1.9740   -1.4490   -3.7720 n2        1 2SM     -0.205000
     20 C13         3.0300   -1.8710   -4.4820 c1        1 2SM      0.049000
     21 C28         2.8990   -3.0680   -5.3940 c2        1 2SM     -0.180000
     22 C14         4.2350   -1.2450   -4.3470 c2        1 2SM     -0.264000
     23 C15         4.3640   -0.1920   -3.4900 c1        1 2SM     -0.013000
     24 N16         3.3060    0.2280   -2.7810 n1        1 2SM     -0.163000
     25 H24        -1.5770   -2.1100    5.1100 h1        1 2SM      0.098667
     26 H24A       -2.5170   -3.1850    4.3800 h1        1 2SM      0.098667
     27 H24B       -3.1690   -2.0270    5.2780 h1        1 2SM      0.098667
     28 H3         -3.2390    1.5580    4.7400 ha        1 2SM      0.160000
     29 H2         -4.0550    3.6030    3.8830 ha        1 2SM      0.148000
     30 H1         -3.4570    4.2940    1.7050 ha        1 2SM      0.148000
     31 H6         -2.0430    2.9400    0.3830 ha        1 2SM      0.170000
     32 HN8        -0.2390    2.2210   -0.4790 hn        1 2SM      0.296000
     33 HN10        0.1350   -0.1300   -2.4760 hn        1 2SM      0.285000
     34 H28         2.9400   -2.7740   -6.3280 ha        1 2SM      0.099000
     35 H28A        3.6300   -3.6960   -5.2170 ha        1 2SM      0.099000
     36 H28B        2.0410   -3.5110   -5.2290 ha        1 2SM      0.099000
     37 H14         5.0050   -1.5510   -4.8640 ha        1 2SM      0.156000
     38 H15         5.2250    0.2560   -3.3930 ha        1 2SM      0.170000
@<TRIPOS>BOND
     1    1    2 1   
     2    1   25 1   
     3    1   26 1   
     4    1   27 1   
     5    2    3 1   
     6    3    4 1   
     7    3    5 1   
     8    5    6 1   
     9    5   10 1   
    10    6   28 1   
    11    7    8 1   
    12    7   29 1   
    13    8   30 1   
    14    9   10 1   
    15    9   31 1   
    16   10   11 1   
    17   11   12 1   
    18   11   13 1   
    19   14   15 1   
    20   14   32 1   
    21   15   16 1   
    22   15   17 1   
    23   17   18 1   
    24   17   33 1   
    25   18   19 1   
    26   18   24 1   
    27   19   20 1   
    28   20   22 1   
    29   21   34 1   
    30   21   35 1   
    31   21   36 1   
    32   22   23 1   
    33   22   37 1   
    34   23   38 1   
@<TRIPOS>SUBSTRUCTURE
     1 2SM         1 TEMP              0 ****  ****    0 ROOT
