@<TRIPOS>MOLECULE
2SM
   39    39     1     0     0
SMALL
bcc


@<TRIPOS>ATOM
      1 C24         0.0260    1.4750   -0.2010 c3        1 2SM      0.121700
      2 O23         1.4500    1.3380   -0.0440 os        1 2SM     -0.393900
      3 C22         1.8780    0.4850    0.9120 c         1 2SM      0.632700
      4 O25         1.0590   -0.1580    1.5820 o         1 2SM     -0.569000
      5 C4          3.3550    0.3710    1.0240 ca        1 2SM      0.019400
      6 C3          4.1050    0.3380   -0.1420 ca        1 2SM     -0.103000
      7 C2          5.4850    0.0850   -0.0870 ca        1 2SM      0.001000
      8 C1          6.0960   -0.1490    1.1410 ca        1 2SM     -0.135000
      9 C6          5.3460   -0.0910    2.3120 ca        1 2SM      0.045000
     10 C5          3.9650    0.2150    2.2990 ca        1 2SM     -0.513500
     11 S7          3.2370    0.4200    3.7020 s4        1 2SM      1.652300
     12 O18         3.9970    0.2750    4.8190 o         1 2SM     -0.425400
     13 O17         2.1150    1.1890    3.7120 o         1 2SM     -0.425400
     14 N8          2.0610   -1.5260    3.9190 nt        1 2SM     -0.717000
     15 C9          2.9540   -2.6870    4.0520 c         1 2SM      0.747100
     16 O20         4.1220   -2.4930    3.6710 o         1 2SM     -0.554100
     17 N10         2.4510   -3.8590    4.5820 ns        1 2SM     -0.525400
     18 C11         3.2900   -4.9780    4.8960 ca        1 2SM      0.734900
     19 N12         2.7540   -6.2190    4.6230 nb        1 2SM     -0.714000
     20 C13         3.5190   -7.2880    4.9580 ca        1 2SM      0.479600
     21 C28         2.9920   -8.6630    4.7070 c3        1 2SM     -0.163400
     22 C14         4.7960   -7.1290    5.5440 ca        1 2SM     -0.358600
     23 C15         5.2440   -5.8190    5.7770 ca        1 2SM      0.453200
     24 N16         4.5190   -4.7260    5.4690 nb        1 2SM     -0.684000
     25 H24        -0.4230    1.8360    0.7550 h1        1 2SM      0.073700
     26 H24A       -0.4130    0.4930   -0.4970 h1        1 2SM      0.073700
     27 H24B       -0.0610    2.2360   -1.0170 h1        1 2SM      0.073700
     28 H3          3.6100    0.5040   -1.1170 ha        1 2SM      0.187000
     29 H2          6.0740    0.0610   -1.0210 ha        1 2SM      0.178000
     30 H1          7.1740   -0.3830    1.1940 ha        1 2SM      0.182000
     31 H6          5.8410   -0.2960    3.2840 ha        1 2SM      0.190000
     32 HN8         1.4530   -1.4170    4.7160 hn        1 2SM      0.322000
     33 HN10        1.4660   -4.0180    4.6290 hn        1 2SM      0.357500
     34 H28         2.2250   -8.9170    5.4820 hc        1 2SM      0.071367
     35 H28A        3.8230   -9.4070    4.7660 hc        1 2SM      0.071367
     36 H28B        2.5110   -8.7380    3.7000 hc        1 2SM      0.071367
     37 H14         5.4120   -7.9970    5.8090 ha        1 2SM      0.174000
     38 H15         6.2300   -5.6170    6.2380 h4        1 2SM      0.048100
     39 H82         1.4940   -1.6060    3.0820 hn        1 2SM      0.322000
@<TRIPOS>BOND
     1    1    2 1   
     2    1   25 1   
     3    1   26 1   
     4    1   27 1   
     5    2    3 1   
     6    3    4 2   
     7    3    5 1   
     8    5    6 ar  
     9    5   10 ar  
    10    6    7 ar  
    11    6   28 1   
    12    7    8 ar  
    13    7   29 1   
    14    8    9 ar  
    15    8   30 1   
    16    9   10 ar  
    17    9   31 1   
    18   10   11 1   
    19   11   12 1   
    20   11   13 1   
    21   14   15 1   
    22   14   32 1   
    23   14   39 1   
    24   15   16 2   
    25   15   17 1   
    26   17   18 1   
    27   17   33 1   
    28   18   19 ar  
    29   18   24 ar  
    30   19   20 ar  
    31   20   21 1   
    32   20   22 ar  
    33   21   34 1   
    34   21   35 1   
    35   21   36 1   
    36   22   23 ar  
    37   22   37 1   
    38   23   24 ar  
    39   23   38 1   
@<TRIPOS>SUBSTRUCTURE
     1 2SM         1 TEMP              0 ****  ****    0 ROOT
