@<TRIPOS>MOLECULE
2SM
   39    39     1     0     0
SMALL
bcc


@<TRIPOS>ATOM
      1 C24        -0.0060    1.4950   -0.1360 c3        1 2SM      0.121700
      2 O23         1.4200    1.3460   -0.0100 os        1 2SM     -0.393900
      3 C22         1.8610    0.4920    0.9400 c         1 2SM      0.632700
      4 O25         1.0500   -0.1410    1.6290 o         1 2SM     -0.569000
      5 C4          3.3390    0.3650    1.0200 ca        1 2SM      0.019400
      6 C3          4.0630    0.3220   -0.1620 ca        1 2SM     -0.103000
      7 C2          5.4410    0.0570   -0.1360 ca        1 2SM      0.001000
      8 C1          6.0770   -0.1780    1.0790 ca        1 2SM     -0.135000
      9 C6          5.3530   -0.1100    2.2670 ca        1 2SM      0.045000
     10 C5          3.9740    0.2080    2.2830 ca        1 2SM     -0.513500
     11 S7          3.2790    0.4240    3.7000 s4        1 2SM      1.652300
     12 O18         4.0610    0.2760    4.8010 o         1 2SM     -0.425400
     13 O17         2.1640    1.2030    3.7310 o         1 2SM     -0.425400
     14 N8          2.0910   -1.5110    3.9490 n         1 2SM     -0.717000
     15 C9          2.9770   -2.6800    4.0640 c         1 2SM      0.747100
     16 O20         4.1380   -2.4950    3.6590 o         1 2SM     -0.555100
     17 N10         2.4740   -3.8470    4.6020 n         1 2SM     -0.525400
     18 C11         3.3090   -4.9740    4.8980 ca        1 2SM      0.734900
     19 N12         2.7580   -6.2100    4.6340 nb        1 2SM     -0.714000
     20 C13         3.5210   -7.2860    4.9520 ca        1 2SM      0.479600
     21 C28         2.9770   -8.6560    4.7100 c3        1 2SM     -0.163400
     22 C14         4.8100   -7.1380    5.5140 ca        1 2SM     -0.358600
     23 C15         5.2730   -5.8320    5.7400 ca        1 2SM      0.453200
     24 N16         4.5510   -4.7340    5.4480 nb        1 2SM     -0.684000
     25 H24        -0.4310    1.8630    0.8280 h1        1 2SM      0.073700
     26 H24A       -0.1040    2.2540   -0.9530 h1        1 2SM      0.073700
     27 H24B       -0.4600    0.5160   -0.4200 h1        1 2SM      0.073700
     28 H3          3.5490    0.4900   -1.1260 ha        1 2SM      0.187000
     29 H2          6.0100    0.0260   -1.0820 ha        1 2SM      0.178000
     30 H1          7.1530   -0.4210    1.1100 ha        1 2SM      0.182000
     31 H6          5.8670   -0.3170    3.2280 ha        1 2SM      0.190000
     32 HN8         1.5030   -1.3950    4.7600 hn        1 2SM      0.322000
     33 HN10        1.4890   -3.9980    4.6690 hn        1 2SM      0.357500
     34 H28         3.8040   -9.4060    4.7480 hc        1 2SM      0.071367
     35 H28A        2.2250   -8.9060    5.5010 hc        1 2SM      0.071367
     36 H28B        2.4740   -8.7250    3.7130 hc        1 2SM      0.071367
     37 H14         5.4240   -8.0120    5.7660 ha        1 2SM      0.174000
     38 H15         6.2700   -5.6390    6.1820 h4        1 2SM      0.048100
     39 H82         1.5030   -1.5870    3.1270 hn        1 2SM      0.322000
@<TRIPOS>BOND
     1    1    2 1   
     2    1   25 1   
     3    1   26 1   
     4    1   27 1   
     5    2    3 1   
     6    3    4 2   
     7    3    5 1   
     8    5    6 ar  
     9    5   10 ar  
    10    6    7 ar  
    11    6   28 1   
    12    7    8 ar  
    13    7   29 1   
    14    8    9 ar  
    15    8   30 1   
    16    9   10 ar  
    17    9   31 1   
    18   10   11 1   
    19   11   12 1   
    20   11   13 1   
    21   14   15 1   
    22   14   32 1   
    23   14   39 1   
    24   15   16 2   
    25   15   17 1   
    26   17   18 1   
    27   17   33 1   
    28   18   19 ar  
    29   18   24 ar  
    30   19   20 ar  
    31   20   21 1   
    32   20   22 ar  
    33   21   34 1   
    34   21   35 1   
    35   21   36 1   
    36   22   23 ar  
    37   22   37 1   
    38   23   24 ar  
    39   23   38 1   
@<TRIPOS>SUBSTRUCTURE
     1 2SM         1 TEMP              0 ****  ****    0 ROOT
