@<TRIPOS>MOLECULE
2SM
   38    39     1     0     0
SMALL
bcc


@<TRIPOS>ATOM
      1 C24        -4.0510   -3.6600    0.0940 c3        1 2SM      0.124700
      2 O23        -3.9580   -2.3760   -0.5330 os        1 2SM     -0.417900
      3 C22        -2.7880   -1.6980   -0.3590 c         1 2SM      0.645700
      4 O25        -1.8680   -2.2610    0.2440 o         1 2SM     -0.557000
      5 C4         -2.7780   -0.3580   -0.9900 ca        1 2SM     -0.008600
      6 C3         -3.3280   -0.2340   -2.2670 ca        1 2SM     -0.110000
      7 C2         -3.2840    0.9950   -2.9310 ca        1 2SM     -0.078000
      8 C1         -2.6940    2.0940   -2.3140 ca        1 2SM     -0.129000
      9 C6         -2.1630    1.9660   -1.0300 ca        1 2SM     -0.019000
     10 C5         -2.2050    0.7490   -0.3390 ca        1 2SM     -0.327500
     11 S7         -1.6080    0.7360    1.2570 sy        1 2SM      1.517900
     12 O18        -1.4190    2.0550    1.6830 o         1 2SM     -0.630800
     13 O17        -2.4660   -0.0500    2.0500 o         1 2SM     -0.630800
     14 N8         -0.1950   -0.0930    1.1110 n         1 2SM     -0.672300
     15 C9          1.0140    0.3800    0.5610 c         1 2SM      0.818100
     16 O20         1.0460    1.5080    0.0330 o         1 2SM     -0.573100
     17 N10         2.1330   -0.4780    0.6270 n         1 2SM     -0.545400
     18 C11         3.4470   -0.0310    0.3430 ca        1 2SM      0.770900
     19 N12         4.2800   -0.9490   -0.2760 nb        1 2SM     -0.742000
     20 C13         5.5540   -0.5520   -0.5050 ca        1 2SM      0.473600
     21 C28         6.4960   -1.5050   -1.1670 c3        1 2SM     -0.156400
     22 C14         6.0110    0.7340   -0.1430 ca        1 2SM     -0.395600
     23 C15         5.0880    1.5890    0.4830 ca        1 2SM      0.454200
     24 N16         3.8170    1.2430    0.7440 nb        1 2SM     -0.683000
     25 H24        -3.2900   -4.3490   -0.3430 h1        1 2SM      0.057367
     26 H24A       -3.8950   -3.5560    1.1940 h1        1 2SM      0.057367
     27 H24B       -5.0930   -3.9890   -0.1460 h1        1 2SM      0.057367
     28 H3         -3.7990   -1.1080   -2.7450 ha        1 2SM      0.156000
     29 H2         -3.7160    1.0870   -3.9390 ha        1 2SM      0.144000
     30 H1         -2.6450    3.0640   -2.8320 ha        1 2SM      0.149000
     31 H6         -1.6960    2.8450   -0.5420 ha        1 2SM      0.180000
     32 HN8        -0.2120   -1.0570    1.3850 hn        1 2SM      0.354500
     33 HN10        1.9870   -1.4640    0.6130 hn        1 2SM      0.343500
     34 H28         6.1100   -1.7990   -2.1750 hc        1 2SM      0.059700
     35 H28A        7.4990   -1.0290   -1.2910 hc        1 2SM      0.059700
     36 H28B        6.6100   -2.4320   -0.5510 hc        1 2SM      0.059700
     37 H14         7.0400    1.0520   -0.3400 ha        1 2SM      0.156000
     38 H15         5.3730    2.6090    0.8020 h4        1 2SM      0.034100
@<TRIPOS>BOND
     1    1    2 1   
     2    1   25 1   
     3    1   26 1   
     4    1   27 1   
     5    2    3 1   
     6    3    4 2   
     7    3    5 1   
     8    5    6 ar  
     9    5   10 ar  
    10    6    7 ar  
    11    6   28 1   
    12    7    8 ar  
    13    7   29 1   
    14    8    9 ar  
    15    8   30 1   
    16    9   10 ar  
    17    9   31 1   
    18   10   11 1   
    19   11   12 2   
    20   11   13 2   
    21   11   14 1   
    22   14   15 1   
    23   14   32 1   
    24   15   16 2   
    25   15   17 1   
    26   17   18 1   
    27   17   33 1   
    28   18   19 ar  
    29   18   24 ar  
    30   19   20 ar  
    31   20   21 1   
    32   20   22 ar  
    33   21   34 1   
    34   21   35 1   
    35   21   36 1   
    36   22   23 ar  
    37   22   37 1   
    38   23   24 ar  
    39   23   38 1   
@<TRIPOS>SUBSTRUCTURE
     1 2SM         1 TEMP              0 ****  ****    0 ROOT
