@<TRIPOS>MOLECULE
2SN
   46    48     1     0     0
SMALL
bcc


@<TRIPOS>ATOM
      1 C26        -0.1140   -0.5780   -0.4610 c3        1 2SN      0.080600
      2 N24         1.3160   -0.3210   -0.1640 n4        1 2SN     -0.684400
      3 C25         1.5330   -0.1500    1.2960 c3        1 2SN      0.080600
      4 C23         2.1900   -1.4250   -0.7160 c3        1 2SN      0.173100
      5 C16         4.5350   -1.4160    0.1350 ca        1 2SN     -0.197000
      6 C15         3.6110   -0.9830   -0.8150 ca        1 2SN     -0.133300
      7 C14         3.9980   -0.1570   -1.8720 ca        1 2SN     -0.179000
      8 C13         5.3350    0.2320   -1.9750 ca        1 2SN     -0.070000
      9 C12         6.2740   -0.1840   -1.0440 ca        1 2SN     -0.164000
     10 C11         5.8960   -1.0220    0.0410 ca        1 2SN      0.199600
     11 N22         6.7880   -1.3890    1.0320 nh        1 2SN     -0.745600
     12 C21         8.2150   -1.2610    0.8290 c3        1 2SN      0.245100
     13 C10         9.6520   -4.2070    2.7890 ca        1 2SN      0.446600
     14 C09         8.8850   -3.4330    1.8580 ca        1 2SN     -0.181300
     15 C08         9.0100   -2.0630    1.8200 ca        1 2SN     -0.097300
     16 C07         9.8990   -1.3890    2.6930 ca        1 2SN     -0.140000
     17 C06        10.6550   -2.1060    3.5890 ca        1 2SN     -0.080000
     18 C05        10.5490   -3.5150    3.6580 ca        1 2SN     -0.182300
     19 C04        11.3150   -4.2930    4.5750 ca        1 2SN     -0.052000
     20 C03        11.1700   -5.6500    4.6070 ca        1 2SN     -0.270300
     21 C02        10.2240   -6.2820    3.6970 ca        1 2SN      0.665200
     22 N02        10.0180   -7.6560    3.8140 nh        1 2SN     -0.937500
     23 N01         9.5010   -5.5740    2.8040 nb        1 2SN     -0.749000
     24 H261       -0.4160   -1.5670   -0.0240 hx        1 2SN      0.104033
     25 H262       -0.2680   -0.5980   -1.5730 hx        1 2SN      0.104033
     26 H263       -0.7410    0.2370   -0.0100 hx        1 2SN      0.104033
     27 H251        1.1320   -1.0440    1.8430 hx        1 2SN      0.104033
     28 H252        1.0020    0.7750    1.6460 hx        1 2SN      0.104033
     29 H253        2.6380   -0.0550    1.4910 hx        1 2SN      0.104033
     30 H231        2.0800   -2.3200   -0.0400 hx        1 2SN      0.104200
     31 H232        1.7930   -1.6890   -1.7390 hx        1 2SN      0.104200
     32 H14         3.2720    0.1630   -2.6330 ha        1 2SN      0.132000
     33 H13         5.6490    0.8760   -2.8130 ha        1 2SN      0.154000
     34 H12         7.3210    0.1420   -1.1520 ha        1 2SN      0.158000
     35 H22         6.5030   -2.1330    1.6330 hn        1 2SN      0.430800
     36 H211        8.4990   -1.5970   -0.2130 h1        1 2SN      0.056700
     37 H212        8.4770   -0.1670    0.9190 h1        1 2SN      0.056700
     38 H07         9.9790   -0.2930    2.6440 ha        1 2SN      0.139000
     39 H06        11.3550   -1.5940    4.2680 ha        1 2SN      0.142000
     40 H04        12.0190   -3.7810    5.2490 ha        1 2SN      0.146000
     41 H03        11.7460   -6.2700    5.3090 ha        1 2SN      0.151000
     42 H021        9.5090   -8.1070    3.0890 hn        1 2SN      0.419300
     43 H022       10.7840   -8.1700    4.1830 hn        1 2SN      0.419300
     44 H16         4.2110   -2.0810    0.9500 ha        1 2SN      0.136000
     45 H241        1.6010    0.5530   -0.6320 hn        1 2SN      0.454800
     46 H09         8.2070   -3.9580    1.1670 ha        1 2SN      0.143000
@<TRIPOS>BOND
     1    1    2 1   
     2    1   24 1   
     3    1   25 1   
     4    1   26 1   
     5    2    3 1   
     6    2    4 1   
     7    2   45 1   
     8    3   27 1   
     9    3   28 1   
    10    3   29 1   
    11    4    6 1   
    12    4   30 1   
    13    4   31 1   
    14    5    6 ar  
    15    5   10 ar  
    16    5   44 1   
    17    6    7 ar  
    18    7    8 ar  
    19    7   32 1   
    20    8    9 ar  
    21    8   33 1   
    22    9   10 ar  
    23    9   34 1   
    24   10   11 1   
    25   11   12 1   
    26   11   35 1   
    27   12   15 1   
    28   12   36 1   
    29   12   37 1   
    30   13   14 ar  
    31   13   18 ar  
    32   13   23 ar  
    33   14   15 ar  
    34   14   46 1   
    35   15   16 ar  
    36   16   17 ar  
    37   16   38 1   
    38   17   18 ar  
    39   17   39 1   
    40   18   19 ar  
    41   19   20 ar  
    42   19   40 1   
    43   20   21 ar  
    44   20   41 1   
    45   21   22 1   
    46   21   23 ar  
    47   22   42 1   
    48   22   43 1   
@<TRIPOS>SUBSTRUCTURE
     1 2SN         1 TEMP              0 ****  ****    0 ROOT
