@<TRIPOS>MOLECULE
2SN
   46    48     1     0     0
SMALL
bcc


@<TRIPOS>ATOM
      1 C26        -0.1170   -0.5940   -0.4720 c3        1 2SN      0.080600
      2 N24         1.3110   -0.3320   -0.1670 nx        1 2SN     -0.684400
      3 C25         1.5220   -0.1720    1.2950 c3        1 2SN      0.080600
      4 C23         2.1920   -1.4270   -0.7250 c3        1 2SN      0.173100
      5 C16         4.5340   -1.4140    0.1340 ca        1 2SN     -0.197000
      6 C15         3.6110   -0.9780   -0.8150 ca        1 2SN     -0.133300
      7 C14         3.9980   -0.1410   -1.8640 ca        1 2SN     -0.180000
      8 C13         5.3330    0.2560   -1.9590 ca        1 2SN     -0.070000
      9 C12         6.2700   -0.1640   -1.0280 ca        1 2SN     -0.164000
     10 C11         5.8940   -1.0130    0.0490 ca        1 2SN      0.199600
     11 N22         6.7830   -1.3840    1.0400 nu        1 2SN     -0.745600
     12 C21         8.2100   -1.2470    0.8440 c3        1 2SN      0.245100
     13 C10         9.6560   -4.2000    2.7850 ca        1 2SN      0.446600
     14 C09         8.8890   -3.4230    1.8570 ca        1 2SN     -0.181300
     15 C08         9.0060   -2.0510    1.8310 ca        1 2SN     -0.097300
     16 C07         9.8870   -1.3800    2.7140 ca        1 2SN     -0.140000
     17 C06        10.6430   -2.1000    3.6070 ca        1 2SN     -0.080000
     18 C05        10.5450   -3.5100    3.6640 ca        1 2SN     -0.182300
     19 C04        11.3110   -4.2920    4.5780 ca        1 2SN     -0.052000
     20 C03        11.1750   -5.6490    4.5980 ca        1 2SN     -0.270300
     21 C02        10.2360   -6.2790    3.6790 ca        1 2SN      0.665200
     22 N02        10.0380   -7.6550    3.7830 nv        1 2SN     -0.937500
     23 N01         9.5130   -5.5680    2.7880 nb        1 2SN     -0.749000
     24 H261       -0.2660   -0.6050   -1.5850 hx        1 2SN      0.104033
     25 H262       -0.4160   -1.5870   -0.0440 hx        1 2SN      0.104033
     26 H263       -0.7500    0.2150   -0.0170 hx        1 2SN      0.104033
     27 H251        0.9850    0.7470    1.6510 hx        1 2SN      0.104033
     28 H252        1.1230   -1.0730    1.8330 hx        1 2SN      0.104033
     29 H253        2.6250   -0.0740    1.4950 hx        1 2SN      0.104033
     30 H231        1.8000   -1.6840   -1.7520 hx        1 2SN      0.104200
     31 H232        2.0840   -2.3280   -0.0570 hx        1 2SN      0.104200
     32 H14         3.2730    0.1820   -2.6250 ha        1 2SN      0.132000
     33 H13         5.6480    0.9080   -2.7900 ha        1 2SN      0.154000
     34 H12         7.3160    0.1690   -1.1290 ha        1 2SN      0.158000
     35 H22         6.5000   -2.1340    1.6330 hn        1 2SN      0.430800
     36 H211        8.5010   -1.5730   -0.2000 h1        1 2SN      0.056700
     37 H212        8.4660   -0.1510    0.9430 h1        1 2SN      0.056700
     38 H07         9.9610   -0.2840    2.6740 ha        1 2SN      0.139000
     39 H06        11.3370   -1.5900    4.2940 ha        1 2SN      0.142000
     40 H04        12.0090   -3.7800    5.2600 ha        1 2SN      0.146000
     41 H03        11.7510   -6.2710    5.2970 ha        1 2SN      0.151000
     42 H021       10.8060   -8.1680    4.1510 hn        1 2SN      0.419300
     43 H022        9.5340   -8.1040    3.0520 hn        1 2SN      0.419300
     44 H16         4.2100   -2.0870    0.9430 ha        1 2SN      0.136000
     45 H241        1.5930    0.5470   -0.6270 hn        1 2SN      0.454800
     46 H09         8.2160   -3.9460    1.1590 ha        1 2SN      0.143000
@<TRIPOS>BOND
     1    1    2 1   
     2    1   24 1   
     3    1   25 1   
     4    1   26 1   
     5    2    3 1   
     6    2    4 1   
     7    2   45 1   
     8    3   27 1   
     9    3   28 1   
    10    3   29 1   
    11    4    6 1   
    12    4   30 1   
    13    4   31 1   
    14    5    6 ar  
    15    5   10 ar  
    16    5   44 1   
    17    6    7 ar  
    18    7    8 ar  
    19    7   32 1   
    20    8    9 ar  
    21    8   33 1   
    22    9   10 ar  
    23    9   34 1   
    24   10   11 1   
    25   11   12 1   
    26   11   35 1   
    27   12   15 1   
    28   12   36 1   
    29   12   37 1   
    30   13   14 ar  
    31   13   18 ar  
    32   13   23 ar  
    33   14   15 ar  
    34   14   46 1   
    35   15   16 ar  
    36   16   17 ar  
    37   16   38 1   
    38   17   18 ar  
    39   17   39 1   
    40   18   19 ar  
    41   19   20 ar  
    42   19   40 1   
    43   20   21 ar  
    44   20   41 1   
    45   21   22 1   
    46   21   23 ar  
    47   22   42 1   
    48   22   43 1   
@<TRIPOS>SUBSTRUCTURE
     1 2SN         1 TEMP              0 ****  ****    0 ROOT
