@<TRIPOS>MOLECULE
2SP
  123   122     1     0     0
SMALL
bcc


@<TRIPOS>ATOM
      1 O1P        -3.6570    5.8980    3.0730 o         1 2SP     -0.927833
      2 P          -4.5070    4.7190    3.4910 p5        1 2SP      1.340900
      3 O2P        -5.9300    4.9350    3.0260 o         1 2SP     -0.927833
      4 O4P        -4.4830    4.5870    4.9960 o         1 2SP     -0.927833
      5 O3P        -3.9400    3.4130    2.8440 os        1 2SP     -0.567200
      6 C1         -4.6510    2.2170    3.0210 c3        1 2SP      0.233400
      7 C2         -4.1060    1.1760    2.1100 c3        1 2SP      0.092100
      8 O2         -5.0760    0.8260    1.1740 os        1 2SP     -0.462900
      9 C31        -4.6810    1.0610   -0.1910 c         1 2SP      0.656100
     10 O31        -3.5130    1.1950   -0.4660 o         1 2SP     -0.569000
     11 C32        -5.7450    1.0580   -1.3150 c3        1 2SP     -0.133400
     12 C33        -5.0330    1.1760   -2.7120 c3        1 2SP     -0.110400
     13 C34        -6.0210    1.7790   -3.7470 c3        1 2SP     -0.049400
     14 C35        -5.3510    1.7950   -5.1680 c3        1 2SP     -0.120400
     15 C36        -5.8420    3.0250   -5.9510 c3        1 2SP     -0.046400
     16 C37        -5.0830    3.1080   -7.3320 c3        1 2SP     -0.118400
     17 C38        -5.1790    4.5730   -7.8980 c3        1 2SP     -0.062400
     18 C39        -3.9920    4.8460   -8.8090 c3        1 2SP     -0.084400
     19 C40        -4.2300    6.1840   -9.5880 c3        1 2SP     -0.075400
     20 C41        -2.9200    6.9350   -9.7210 c3        1 2SP     -0.081400
     21 C42        -2.9580    7.8110  -10.9820 c3        1 2SP     -0.077400
     22 C43        -1.5640    8.5080  -11.1770 c3        1 2SP     -0.080400
     23 C44        -1.4430    9.0400  -12.6380 c3        1 2SP     -0.078400
     24 C45         0.0810    9.3770  -12.9520 c3        1 2SP     -0.079400
     25 C46         0.2030    9.9520  -14.3860 c3        1 2SP     -0.078400
     26 C47         1.6710    9.8340  -14.8660 c3        1 2SP     -0.081400
     27 C48         1.7770   10.3280  -16.2950 c3        1 2SP     -0.091100
     28 C3         -3.7120   -0.0680    2.9310 c3        1 2SP      0.130400
     29 O3         -2.5070    0.2050    3.6720 os        1 2SP     -0.478900
     30 C11        -2.2760   -0.6990    4.7540 c         1 2SP      0.668100
     31 O11        -2.9690   -1.7040    4.8710 o         1 2SP     -0.577000
     32 C12        -1.1590   -0.4020    5.7880 c3        1 2SP     -0.200400
     33 C13        -1.1040   -1.5360    6.8290 c3        1 2SP     -0.046400
     34 C14         0.1430   -1.3630    7.7060 c3        1 2SP     -0.114400
     35 C15         0.2450   -2.5550    8.7080 c3        1 2SP     -0.064400
     36 C16         1.6640   -2.6100    9.3010 c3        1 2SP     -0.083400
     37 C17         1.8480   -3.9570   10.0890 c3        1 2SP     -0.075400
     38 C18         3.3630   -4.1910   10.3720 c3        1 2SP     -0.081400
     39 C19         3.5920   -5.6790   10.7790 c3        1 2SP     -0.077400
     40 C20         5.1020   -6.0600   10.5480 c3        1 2SP     -0.080400
     41 C21         5.2200   -7.5540   10.3300 c3        1 2SP     -0.078400
     42 C22         6.6000   -7.8780    9.7320 c3        1 2SP     -0.079400
     43 C23         6.6040   -9.3320    9.2060 c3        1 2SP     -0.078400
     44 C24         7.7450   -9.5120    8.2110 c3        1 2SP     -0.079400
     45 C25         7.6870  -10.9660    7.6030 c3        1 2SP     -0.078400
     46 C26         8.5720  -11.0330    6.3430 c3        1 2SP     -0.079400
     47 C27         8.5060  -12.4360    5.7500 c3        1 2SP     -0.080400
     48 C28         9.1820  -12.4440    4.3820 c3        1 2SP     -0.091100
     49 H11        -5.5970    2.3660    2.8170 h1        1 2SP      0.008700
     50 H12        -4.5600    1.9180    3.9470 h1        1 2SP      0.008700
     51 H2         -3.3100    1.5300    1.6420 h1        1 2SP      0.078700
     52 H321       -6.2530    0.2260   -1.2790 hc        1 2SP      0.048700
     53 H322       -6.3550    1.8210   -1.1910 hc        1 2SP      0.048700
     54 H331       -4.2460    1.7610   -2.6290 hc        1 2SP      0.090200
     55 H332       -4.7480    0.2850   -3.0110 hc        1 2SP      0.090200
     56 H341       -6.2510    2.7000   -3.4830 hc        1 2SP      0.009700
     57 H342       -6.8300    1.2380   -3.7770 hc        1 2SP      0.009700
     58 H351       -5.5980    0.9720   -5.6580 hc        1 2SP      0.088200
     59 H352       -4.3880    1.8370   -5.0710 hc        1 2SP      0.088200
     60 H361       -5.6650    3.8290   -5.4350 hc        1 2SP      0.004200
     61 H362       -6.8090    2.9450   -6.1120 hc        1 2SP      0.004200
     62 H371       -4.1450    2.8700   -7.2030 hc        1 2SP      0.092200
     63 H372       -5.5040    2.4690   -7.9850 hc        1 2SP      0.092200
     64 H381       -5.1730    5.2030   -7.1650 hc        1 2SP      0.015200
     65 H382       -6.0120    4.6730   -8.4080 hc        1 2SP      0.015200
     66 H391       -3.1780    4.9210   -8.2700 hc        1 2SP      0.053700
     67 H392       -3.8940    4.1100   -9.4470 hc        1 2SP      0.053700
     68 H401       -4.8780    6.7410   -9.0950 hc        1 2SP      0.027200
     69 H402       -4.5850    5.9830  -10.4870 hc        1 2SP      0.027200
     70 H411       -2.1840    6.2970   -9.7890 hc        1 2SP      0.043200
     71 H412       -2.7900    7.4920   -8.9470 hc        1 2SP      0.043200
     72 H421       -3.6520    8.4920  -10.8840 hc        1 2SP      0.032700
     73 H422       -3.1570    7.2510  -11.7630 hc        1 2SP      0.032700
     74 H431       -1.4840    9.2510  -10.5550 hc        1 2SP      0.040200
     75 H432       -0.8480    7.8590  -11.0050 hc        1 2SP      0.040200
     76 H441       -1.7630    8.3570  -13.2620 hc        1 2SP      0.035700
     77 H442       -1.9800    9.8450  -12.7340 hc        1 2SP      0.035700
     78 H451        0.6160    8.5610  -12.8830 hc        1 2SP      0.039700
     79 H452        0.4090   10.0370  -12.3070 hc        1 2SP      0.039700
     80 H461       -0.0640   10.8940  -14.3830 hc        1 2SP      0.036700
     81 H462       -0.3800    9.4490  -14.9900 hc        1 2SP      0.036700
     82 H471        2.2480   10.3780  -14.2900 hc        1 2SP      0.038200
     83 H472        1.9530    8.9020  -14.8230 hc        1 2SP      0.038200
     84 H481        1.7260   11.3090  -16.3060 hc        1 2SP      0.028033
     85 H482        1.0410    9.9570  -16.8240 hc        1 2SP      0.028033
     86 H483        2.6320   10.0410  -16.6790 hc        1 2SP      0.028033
     87 H31        -3.5580   -0.8290    2.3210 h1        1 2SP      0.051200
     88 H32        -4.4410   -0.2920    3.5590 h1        1 2SP      0.051200
     89 H121       -0.2950   -0.3390    5.3270 hc        1 2SP      0.140700
     90 H122       -1.3530    0.4590    6.2470 hc        1 2SP      0.140700
     91 H131       -1.9020   -1.5040    7.3880 hc        1 2SP      0.021700
     92 H132       -1.0640   -2.3880    6.3760 hc        1 2SP      0.021700
     93 H141        0.9420   -1.3450    7.1360 hc        1 2SP      0.089700
     94 H142        0.0770   -0.5160    8.2070 hc        1 2SP      0.089700
     95 H151       -0.4070   -2.4290    9.4340 hc        1 2SP      0.019200
     96 H152        0.0550   -3.3910    8.2410 hc        1 2SP      0.019200
     97 H161        2.3210   -2.5620    8.5790 hc        1 2SP      0.052200
     98 H162        1.7930   -1.8530    9.9120 hc        1 2SP      0.052200
     99 H171        1.4960   -4.7010    9.5510 hc        1 2SP      0.028700
    100 H172        1.3570   -3.9080   10.9440 hc        1 2SP      0.028700
    101 H181        3.6500   -3.6100   11.0950 hc        1 2SP      0.043200
    102 H182        3.8790   -3.9900    9.5690 hc        1 2SP      0.043200
    103 H191        3.3670   -5.7960   11.7240 hc        1 2SP      0.033200
    104 H192        3.0210   -6.2590   10.2330 hc        1 2SP      0.033200
    105 H201        5.4400   -5.5890    9.7630 hc        1 2SP      0.040700
    106 H202        5.6240   -5.8040   11.3300 hc        1 2SP      0.040700
    107 H211        5.1200   -8.0130   11.1770 hc        1 2SP      0.035700
    108 H212        4.5250   -7.8480    9.7170 hc        1 2SP      0.035700
    109 H221        6.7910   -7.2560    8.9850 hc        1 2SP      0.039700
    110 H222        7.2910   -7.7780   10.4280 hc        1 2SP      0.039700
    111 H231        5.7510   -9.5210    8.7620 hc        1 2SP      0.036700
    112 H232        6.7250   -9.9480    9.9540 hc        1 2SP      0.036700
    113 H241        7.6580   -8.8530    7.4910 hc        1 2SP      0.039700
    114 H242        8.6040   -9.3840    8.6710 hc        1 2SP      0.039700
    115 H251        8.0150  -11.6110    8.2660 hc        1 2SP      0.037700
    116 H252        6.7540  -11.1870    7.3620 hc        1 2SP      0.037700
    117 H261        8.2520  -10.3880    5.6870 hc        1 2SP      0.039700
    118 H262        9.4850  -10.8250    6.5790 hc        1 2SP      0.039700
    119 H271        7.5680  -12.7050    5.6540 hc        1 2SP      0.036700
    120 H272        8.9660  -13.0620    6.3440 hc        1 2SP      0.036700
    121 H281        8.5990  -11.9930    3.7250 hc        1 2SP      0.030033
    122 H282       10.0410  -11.9700    4.4380 hc        1 2SP      0.030033
    123 H283        9.3370  -13.3650    4.1010 hc        1 2SP      0.030033
@<TRIPOS>BOND
     1    1    2 1   
     2    2    3 1   
     3    2    4 1   
     4    2    5 1   
     5    5    6 1   
     6    6    7 1   
     7    6   49 1   
     8    6   50 1   
     9    7    8 1   
    10    7   28 1   
    11    7   51 1   
    12    8    9 1   
    13    9   10 2   
    14    9   11 1   
    15   11   12 1   
    16   11   52 1   
    17   11   53 1   
    18   12   13 1   
    19   12   54 1   
    20   12   55 1   
    21   13   14 1   
    22   13   56 1   
    23   13   57 1   
    24   14   15 1   
    25   14   58 1   
    26   14   59 1   
    27   15   16 1   
    28   15   60 1   
    29   15   61 1   
    30   16   17 1   
    31   16   62 1   
    32   16   63 1   
    33   17   18 1   
    34   17   64 1   
    35   17   65 1   
    36   18   19 1   
    37   18   66 1   
    38   18   67 1   
    39   19   20 1   
    40   19   68 1   
    41   19   69 1   
    42   20   21 1   
    43   20   70 1   
    44   20   71 1   
    45   21   22 1   
    46   21   72 1   
    47   21   73 1   
    48   22   23 1   
    49   22   74 1   
    50   22   75 1   
    51   23   24 1   
    52   23   76 1   
    53   23   77 1   
    54   24   25 1   
    55   24   78 1   
    56   24   79 1   
    57   25   26 1   
    58   25   80 1   
    59   25   81 1   
    60   26   27 1   
    61   26   82 1   
    62   26   83 1   
    63   27   84 1   
    64   27   85 1   
    65   27   86 1   
    66   28   29 1   
    67   28   87 1   
    68   28   88 1   
    69   29   30 1   
    70   30   31 2   
    71   30   32 1   
    72   32   33 1   
    73   32   89 1   
    74   32   90 1   
    75   33   34 1   
    76   33   91 1   
    77   33   92 1   
    78   34   35 1   
    79   34   93 1   
    80   34   94 1   
    81   35   36 1   
    82   35   95 1   
    83   35   96 1   
    84   36   37 1   
    85   36   97 1   
    86   36   98 1   
    87   37   38 1   
    88   37   99 1   
    89   37  100 1   
    90   38   39 1   
    91   38  101 1   
    92   38  102 1   
    93   39   40 1   
    94   39  103 1   
    95   39  104 1   
    96   40   41 1   
    97   40  105 1   
    98   40  106 1   
    99   41   42 1   
   100   41  107 1   
   101   41  108 1   
   102   42   43 1   
   103   42  109 1   
   104   42  110 1   
   105   43   44 1   
   106   43  111 1   
   107   43  112 1   
   108   44   45 1   
   109   44  113 1   
   110   44  114 1   
   111   45   46 1   
   112   45  115 1   
   113   45  116 1   
   114   46   47 1   
   115   46  117 1   
   116   46  118 1   
   117   47   48 1   
   118   47  119 1   
   119   47  120 1   
   120   48  121 1   
   121   48  122 1   
   122   48  123 1   
@<TRIPOS>SUBSTRUCTURE
     1 2SP         1 TEMP              0 ****  ****    0 ROOT
