@<TRIPOS>MOLECULE
2SP
  123   122     1     0     0
SMALL
bcc


@<TRIPOS>ATOM
      1 O1P        -0.5730    2.1590   -2.9600 o         1 2SP     -0.915167
      2 P          -0.1740    1.2020   -1.8580 p5        1 2SP      1.323900
      3 O2P        -0.1050    1.7730   -0.4720 o         1 2SP     -0.915167
      4 O4P        -0.6980   -0.1980   -1.9650 o         1 2SP     -0.915167
      5 O3P         1.5090    1.0080   -2.2850 os        1 2SP     -0.564200
      6 C1          2.3210    0.6010   -1.2710 c3        1 2SP      0.234400
      7 C2          3.6840    1.3450   -1.2510 c3        1 2SP      0.091100
      8 O2          3.4270    2.6240   -0.6430 os        1 2SP     -0.348900
      9 C31         4.4410    3.2890   -0.0570 c         1 2SP      0.630100
     10 O31         5.5800    2.8010    0.0110 o         1 2SP     -0.624000
     11 C32         3.9970    4.6250    0.4720 c3        1 2SP     -0.139400
     12 C33         4.7350    4.9870    1.7410 c3        1 2SP     -0.074400
     13 C34         4.3710    6.3840    2.1980 c3        1 2SP     -0.079400
     14 C35         5.0880    6.7460    3.4810 c3        1 2SP     -0.077400
     15 C36         4.7270    8.1430    3.9370 c3        1 2SP     -0.079400
     16 C37         5.4430    8.5050    5.2210 c3        1 2SP     -0.078400
     17 C38         5.0820    9.9020    5.6780 c3        1 2SP     -0.079400
     18 C39         5.7970   10.2650    6.9620 c3        1 2SP     -0.078400
     19 C40         5.4350   11.6620    7.4180 c3        1 2SP     -0.079400
     20 C41         6.1510   12.0240    8.7020 c3        1 2SP     -0.078400
     21 C42         5.7890   13.4210    9.1580 c3        1 2SP     -0.079400
     22 C43         6.5040   13.7830   10.4420 c3        1 2SP     -0.078400
     23 C44         6.1420   15.1800   10.8980 c3        1 2SP     -0.079400
     24 C45         6.8580   15.5430   12.1820 c3        1 2SP     -0.079400
     25 C46         6.4950   16.9400   12.6380 c3        1 2SP     -0.079400
     26 C47         7.2100   17.3030   13.9220 c3        1 2SP     -0.080400
     27 C48         6.8530   18.6940   14.3800 c3        1 2SP     -0.092100
     28 C3          4.3280    1.5280   -2.6240 c3        1 2SP      0.144400
     29 O3          3.7280    2.6210   -3.3120 os        1 2SP     -0.457900
     30 C11         2.9850    2.3200   -4.4410 c         1 2SP      0.697100
     31 O11         3.4630    1.4620   -5.1960 o         1 2SP     -0.613000
     32 C12         1.7490    3.1230   -4.5500 c3        1 2SP     -0.218400
     33 C13         1.1340    3.1060   -5.9280 c3        1 2SP     -0.037400
     34 C14        -0.3280    3.4930   -5.8340 c3        1 2SP     -0.115400
     35 C15        -1.0580    3.2290   -7.1320 c3        1 2SP     -0.064400
     36 C16        -2.5240    3.5840   -7.0090 c3        1 2SP     -0.082400
     37 C17        -3.2790    3.2800   -8.2860 c3        1 2SP     -0.076400
     38 C18        -4.7450    3.6320   -8.1560 c3        1 2SP     -0.080400
     39 C19        -5.5050    3.3210   -9.4280 c3        1 2SP     -0.077400
     40 C20        -6.9710    3.6720   -9.2950 c3        1 2SP     -0.079400
     41 C21        -7.7310    3.3600  -10.5670 c3        1 2SP     -0.078400
     42 C22        -9.1970    3.7110  -10.4330 c3        1 2SP     -0.079400
     43 C23        -9.9570    3.3990  -11.7040 c3        1 2SP     -0.078400
     44 C24       -11.4230    3.7510  -11.5690 c3        1 2SP     -0.079400
     45 C25       -12.1830    3.4390  -12.8410 c3        1 2SP     -0.078400
     46 C26       -13.6490    3.7900  -12.7060 c3        1 2SP     -0.079400
     47 C27       -14.4100    3.4790  -13.9770 c3        1 2SP     -0.080400
     48 C28       -15.8710    3.8270  -13.8470 c3        1 2SP     -0.091100
     49 H11         2.6200   -0.4860   -1.4000 h1        1 2SP      0.012700
     50 H12         1.8240    0.7490   -0.2680 h1        1 2SP      0.012700
     51 H2          4.4090    0.7780   -0.6010 h1        1 2SP      0.023700
     52 H321        4.1940    5.3830   -0.3310 hc        1 2SP      0.084200
     53 H322        2.8870    4.5950    0.6480 hc        1 2SP      0.084200
     54 H331        5.8410    4.9150    1.5650 hc        1 2SP      0.047200
     55 H332        4.4790    4.2480    2.5450 hc        1 2SP      0.047200
     56 H341        4.6360    7.1230    1.3970 hc        1 2SP      0.040700
     57 H342        3.2610    6.4490    2.3540 hc        1 2SP      0.040700
     58 H351        6.1970    6.6750    3.3240 hc        1 2SP      0.036700
     59 H352        4.8190    6.0070    4.2810 hc        1 2SP      0.036700
     60 H361        3.6180    8.2120    4.0920 hc        1 2SP      0.039200
     61 H362        4.9950    8.8810    3.1360 hc        1 2SP      0.039200
     62 H371        5.1740    7.7660    6.0220 hc        1 2SP      0.036700
     63 H372        6.5520    8.4350    5.0660 hc        1 2SP      0.036700
     64 H381        5.3490   10.6410    4.8770 hc        1 2SP      0.039200
     65 H382        3.9720    9.9710    5.8330 hc        1 2SP      0.039200
     66 H391        6.9060   10.1950    6.8060 hc        1 2SP      0.037700
     67 H392        5.5290    9.5260    7.7620 hc        1 2SP      0.037700
     68 H401        5.7030   12.4000    6.6170 hc        1 2SP      0.038700
     69 H402        4.3260   11.7300    7.5730 hc        1 2SP      0.038700
     70 H411        7.2600   11.9550    8.5460 hc        1 2SP      0.038200
     71 H412        5.8830   11.2850    9.5030 hc        1 2SP      0.038200
     72 H421        4.6800   13.4900    9.3130 hc        1 2SP      0.039200
     73 H422        6.0560   14.1590    8.3570 hc        1 2SP      0.039200
     74 H431        6.2370   13.0450   11.2430 hc        1 2SP      0.038200
     75 H432        7.6130   13.7140   10.2860 hc        1 2SP      0.038200
     76 H441        6.4100   15.9190   10.0970 hc        1 2SP      0.039200
     77 H442        5.0330   15.2490   11.0530 hc        1 2SP      0.039200
     78 H451        7.9670   15.4730   12.0270 hc        1 2SP      0.038700
     79 H452        6.5900   14.8040   12.9830 hc        1 2SP      0.038700
     80 H461        6.7630   17.6780   11.8370 hc        1 2SP      0.039200
     81 H462        5.3860   17.0090   12.7930 hc        1 2SP      0.039200
     82 H471        6.9420   16.5630   14.7210 hc        1 2SP      0.037700
     83 H472        8.3190   17.2320   13.7650 hc        1 2SP      0.037700
     84 H481        5.7550   18.7770   14.5650 hc        1 2SP      0.030700
     85 H482        7.3900   18.9410   15.3270 hc        1 2SP      0.030700
     86 H483        7.1350   19.4480   13.6070 hc        1 2SP      0.030700
     87 H31         5.4100    1.8130   -2.5080 h1        1 2SP      0.042700
     88 H32         4.2310    0.5760   -3.2060 h1        1 2SP      0.042700
     89 H121        0.9970    2.6350   -3.7860 hc        1 2SP      0.152700
     90 H122        1.9250    4.1650   -4.1880 hc        1 2SP      0.152700
     91 H131        1.2250    2.0730   -6.3590 hc        1 2SP      0.013200
     92 H132        1.6790    3.8020   -6.6190 hc        1 2SP      0.013200
     93 H141       -0.4120    4.5800   -5.5710 hc        1 2SP      0.090200
     94 H142       -0.7980    2.9080   -4.9810 hc        1 2SP      0.090200
     95 H151       -0.9580    2.1440   -7.4000 hc        1 2SP      0.016700
     96 H152       -0.5950    3.8190   -7.9670 hc        1 2SP      0.016700
     97 H161       -2.9700    3.0080   -6.1550 hc        1 2SP      0.048700
     98 H162       -2.6270    4.6740   -6.7630 hc        1 2SP      0.048700
     99 H171       -3.1750    2.1890   -8.5290 hc        1 2SP      0.029200
    100 H172       -2.8290    3.8530   -9.1390 hc        1 2SP      0.029200
    101 H181       -5.1920    3.0580   -7.3000 hc        1 2SP      0.040700
    102 H182       -4.8500    4.7220   -7.9120 hc        1 2SP      0.040700
    103 H191       -5.4000    2.2300   -9.6690 hc        1 2SP      0.033700
    104 H192       -5.0570    3.8930  -10.2830 hc        1 2SP      0.033700
    105 H201       -7.4170    3.0990   -8.4400 hc        1 2SP      0.039700
    106 H202       -7.0750    4.7620   -9.0520 hc        1 2SP      0.039700
    107 H211       -7.2840    3.9320  -11.4220 hc        1 2SP      0.036200
    108 H212       -7.6260    2.2690  -10.8090 hc        1 2SP      0.036200
    109 H221       -9.3020    4.8010  -10.1890 hc        1 2SP      0.039700
    110 H222       -9.6430    3.1380   -9.5770 hc        1 2SP      0.039700
    111 H231       -9.8520    2.3090  -11.9460 hc        1 2SP      0.037200
    112 H232       -9.5100    3.9720  -12.5590 hc        1 2SP      0.037200
    113 H241      -11.8690    3.1780  -10.7140 hc        1 2SP      0.039200
    114 H242      -11.5270    4.8410  -11.3260 hc        1 2SP      0.039200
    115 H251      -12.0780    2.3490  -13.0830 hc        1 2SP      0.037700
    116 H252      -11.7360    4.0120  -13.6960 hc        1 2SP      0.037700
    117 H261      -14.0960    3.2170  -11.8510 hc        1 2SP      0.039200
    118 H262      -13.7540    4.8800  -12.4630 hc        1 2SP      0.039200
    119 H271      -13.9610    4.0520  -14.8310 hc        1 2SP      0.037200
    120 H272      -14.3030    2.3890  -14.2190 hc        1 2SP      0.037200
    121 H281      -16.3410    3.2480  -13.0160 hc        1 2SP      0.029700
    122 H282      -16.4130    3.5900  -14.7940 hc        1 2SP      0.029700
    123 H283      -15.9990    4.9150  -13.6300 hc        1 2SP      0.029700
@<TRIPOS>BOND
     1    1    2 1   
     2    2    3 1   
     3    2    4 1   
     4    2    5 1   
     5    5    6 1   
     6    6    7 1   
     7    6   49 1   
     8    6   50 1   
     9    7    8 1   
    10    7   28 1   
    11    7   51 1   
    12    8    9 1   
    13    9   10 2   
    14    9   11 1   
    15   11   12 1   
    16   11   52 1   
    17   11   53 1   
    18   12   13 1   
    19   12   54 1   
    20   12   55 1   
    21   13   14 1   
    22   13   56 1   
    23   13   57 1   
    24   14   15 1   
    25   14   58 1   
    26   14   59 1   
    27   15   16 1   
    28   15   60 1   
    29   15   61 1   
    30   16   17 1   
    31   16   62 1   
    32   16   63 1   
    33   17   18 1   
    34   17   64 1   
    35   17   65 1   
    36   18   19 1   
    37   18   66 1   
    38   18   67 1   
    39   19   20 1   
    40   19   68 1   
    41   19   69 1   
    42   20   21 1   
    43   20   70 1   
    44   20   71 1   
    45   21   22 1   
    46   21   72 1   
    47   21   73 1   
    48   22   23 1   
    49   22   74 1   
    50   22   75 1   
    51   23   24 1   
    52   23   76 1   
    53   23   77 1   
    54   24   25 1   
    55   24   78 1   
    56   24   79 1   
    57   25   26 1   
    58   25   80 1   
    59   25   81 1   
    60   26   27 1   
    61   26   82 1   
    62   26   83 1   
    63   27   84 1   
    64   27   85 1   
    65   27   86 1   
    66   28   29 1   
    67   28   87 1   
    68   28   88 1   
    69   29   30 1   
    70   30   31 2   
    71   30   32 1   
    72   32   33 1   
    73   32   89 1   
    74   32   90 1   
    75   33   34 1   
    76   33   91 1   
    77   33   92 1   
    78   34   35 1   
    79   34   93 1   
    80   34   94 1   
    81   35   36 1   
    82   35   95 1   
    83   35   96 1   
    84   36   37 1   
    85   36   97 1   
    86   36   98 1   
    87   37   38 1   
    88   37   99 1   
    89   37  100 1   
    90   38   39 1   
    91   38  101 1   
    92   38  102 1   
    93   39   40 1   
    94   39  103 1   
    95   39  104 1   
    96   40   41 1   
    97   40  105 1   
    98   40  106 1   
    99   41   42 1   
   100   41  107 1   
   101   41  108 1   
   102   42   43 1   
   103   42  109 1   
   104   42  110 1   
   105   43   44 1   
   106   43  111 1   
   107   43  112 1   
   108   44   45 1   
   109   44  113 1   
   110   44  114 1   
   111   45   46 1   
   112   45  115 1   
   113   45  116 1   
   114   46   47 1   
   115   46  117 1   
   116   46  118 1   
   117   47   48 1   
   118   47  119 1   
   119   47  120 1   
   120   48  121 1   
   121   48  122 1   
   122   48  123 1   
@<TRIPOS>SUBSTRUCTURE
     1 2SP         1 TEMP              0 ****  ****    0 ROOT
