@<TRIPOS>MOLECULE
2SP
  123   122     1     0     0
SMALL
bcc


@<TRIPOS>ATOM
      1 O1P        -0.5850    2.1570   -2.9510 o         1 2SP     -0.915167
      2 P          -0.1910    1.2010   -1.8460 p5        1 2SP      1.323900
      3 O2P        -0.1210    1.7760   -0.4610 o         1 2SP     -0.915167
      4 O4P        -0.7180   -0.1970   -1.9500 o         1 2SP     -0.915167
      5 O3P         1.4920    1.0010   -2.2700 os        1 2SP     -0.564200
      6 C1          2.3020    0.5950   -1.2540 c3        1 2SP      0.234400
      7 C2          3.6670    1.3350   -1.2350 c3        1 2SP      0.091100
      8 O2          3.4130    2.6160   -0.6290 os        1 2SP     -0.348900
      9 C31         4.4280    3.2780   -0.0430 c         1 2SP      0.630100
     10 O31         5.5660    2.7870    0.0280 o         1 2SP     -0.624000
     11 C32         3.9880    4.6170    0.4820 c3        1 2SP     -0.139400
     12 C33         4.7240    4.9790    1.7520 c3        1 2SP     -0.074400
     13 C34         4.3640    6.3780    2.2050 c3        1 2SP     -0.079400
     14 C35         5.0800    6.7400    3.4880 c3        1 2SP     -0.077400
     15 C36         4.7230    8.1390    3.9420 c3        1 2SP     -0.079400
     16 C37         5.4380    8.5020    5.2260 c3        1 2SP     -0.078400
     17 C38         5.0810    9.9010    5.6790 c3        1 2SP     -0.079400
     18 C39         5.7960   10.2640    6.9630 c3        1 2SP     -0.078400
     19 C40         5.4390   11.6630    7.4160 c3        1 2SP     -0.079400
     20 C41         6.1550   12.0260    8.6990 c3        1 2SP     -0.078400
     21 C42         5.7970   13.4250    9.1520 c3        1 2SP     -0.079400
     22 C43         6.5140   13.7890   10.4350 c3        1 2SP     -0.078400
     23 C44         6.1560   15.1880   10.8870 c3        1 2SP     -0.079400
     24 C45         6.8730   15.5520   12.1690 c3        1 2SP     -0.079400
     25 C46         6.5160   16.9520   12.6210 c3        1 2SP     -0.079400
     26 C47         7.2330   17.3170   13.9040 c3        1 2SP     -0.080400
     27 C48         6.8800   18.7100   14.3580 c3        1 2SP     -0.092100
     28 C3          4.3140    1.5130   -2.6070 c3        1 2SP      0.144400
     29 O3          3.7170    2.6060   -3.2980 os        1 2SP     -0.457900
     30 C11         2.9750    2.3040   -4.4280 c         1 2SP      0.697100
     31 O11         3.4520    1.4430   -5.1800 o         1 2SP     -0.613000
     32 C12         1.7420    3.1110   -4.5400 c3        1 2SP     -0.218400
     33 C13         1.1290    3.0910   -5.9190 c3        1 2SP     -0.037400
     34 C14        -0.3320    3.4840   -5.8280 c3        1 2SP     -0.115400
     35 C15        -1.0610    3.2180   -7.1260 c3        1 2SP     -0.064400
     36 C16        -2.5270    3.5780   -7.0060 c3        1 2SP     -0.082400
     37 C17        -3.2810    3.2730   -8.2830 c3        1 2SP     -0.076400
     38 C18        -4.7460    3.6290   -8.1550 c3        1 2SP     -0.080400
     39 C19        -5.5050    3.3180   -9.4280 c3        1 2SP     -0.077400
     40 C20        -6.9700    3.6730   -9.2980 c3        1 2SP     -0.079400
     41 C21        -7.7290    3.3610  -10.5700 c3        1 2SP     -0.078400
     42 C22        -9.1950    3.7160  -10.4380 c3        1 2SP     -0.079400
     43 C23        -9.9540    3.4040  -11.7100 c3        1 2SP     -0.078400
     44 C24       -11.4190    3.7600  -11.5780 c3        1 2SP     -0.079400
     45 C25       -12.1790    3.4480  -12.8490 c3        1 2SP     -0.078400
     46 C26       -13.6440    3.8040  -12.7170 c3        1 2SP     -0.079400
     47 C27       -14.4050    3.4920  -13.9880 c3        1 2SP     -0.080400
     48 C28       -15.8640    3.8450  -13.8610 c3        1 2SP     -0.091100
     49 H11         2.5980   -0.4940   -1.3810 h1        1 2SP      0.012700
     50 H12         1.8040    0.7460   -0.2520 h1        1 2SP      0.012700
     51 H2          4.3890    0.7670   -0.5820 h1        1 2SP      0.023700
     52 H321        2.8770    4.5910    0.6550 hc        1 2SP      0.083700
     53 H322        4.1890    5.3730   -0.3220 hc        1 2SP      0.083700
     54 H331        4.4650    4.2420    2.5570 hc        1 2SP      0.047200
     55 H332        5.8300    4.9030    1.5780 hc        1 2SP      0.047200
     56 H341        3.2550    6.4470    2.3590 hc        1 2SP      0.040700
     57 H342        4.6330    7.1150    1.4030 hc        1 2SP      0.040700
     58 H351        6.1890    6.6650    3.3340 hc        1 2SP      0.036700
     59 H352        4.8080    6.0040    4.2900 hc        1 2SP      0.036700
     60 H361        4.9950    8.8750    3.1390 hc        1 2SP      0.039200
     61 H362        3.6140    8.2120    4.0950 hc        1 2SP      0.039200
     62 H371        5.1660    7.7660    6.0270 hc        1 2SP      0.036700
     63 H372        6.5470    8.4280    5.0720 hc        1 2SP      0.036700
     64 H381        5.3520   10.6370    4.8770 hc        1 2SP      0.039200
     65 H382        3.9720    9.9740    5.8330 hc        1 2SP      0.039200
     66 H391        6.9050   10.1900    6.8090 hc        1 2SP      0.037700
     67 H392        5.5250    9.5280    7.7650 hc        1 2SP      0.037700
     68 H401        5.7090   12.3990    6.6130 hc        1 2SP      0.038700
     69 H402        4.3300   11.7360    7.5710 hc        1 2SP      0.038700
     70 H411        5.8840   11.2900    9.5020 hc        1 2SP      0.038200
     71 H412        7.2630   11.9530    8.5450 hc        1 2SP      0.038200
     72 H421        6.0670   14.1610    8.3490 hc        1 2SP      0.039200
     73 H422        4.6880   13.4980    9.3070 hc        1 2SP      0.039200
     74 H431        7.6220   13.7150   10.2800 hc        1 2SP      0.038200
     75 H432        6.2430   13.0530   11.2380 hc        1 2SP      0.038200
     76 H441        5.0480   15.2610   11.0420 hc        1 2SP      0.039200
     77 H442        6.4260   15.9240   10.0840 hc        1 2SP      0.039200
     78 H451        7.9820   15.4790   12.0140 hc        1 2SP      0.038700
     79 H452        6.6030   14.8170   12.9730 hc        1 2SP      0.038700
     80 H461        6.7860   17.6870   11.8180 hc        1 2SP      0.039200
     81 H462        5.4080   17.0250   12.7770 hc        1 2SP      0.039200
     82 H471        8.3410   17.2410   13.7470 hc        1 2SP      0.037700
     83 H472        6.9630   16.5790   14.7060 hc        1 2SP      0.037700
     84 H481        5.7820   18.7980   14.5430 hc        1 2SP      0.030700
     85 H482        7.1650   19.4610   13.5820 hc        1 2SP      0.030700
     86 H483        7.4190   18.9590   15.3040 hc        1 2SP      0.030700
     87 H31         5.3960    1.7940   -2.4900 h1        1 2SP      0.042700
     88 H32         4.2140    0.5590   -3.1870 h1        1 2SP      0.042700
     89 H121        0.9880    2.6270   -3.7760 hc        1 2SP      0.152700
     90 H122        1.9200    4.1530   -4.1800 hc        1 2SP      0.152700
     91 H131        1.6760    3.7850   -6.6110 hc        1 2SP      0.013200
     92 H132        1.2170    2.0580   -6.3470 hc        1 2SP      0.013200
     93 H141       -0.4130    4.5710   -5.5670 hc        1 2SP      0.090200
     94 H142       -0.8050    2.9020   -4.9730 hc        1 2SP      0.090200
     95 H151       -0.5960    3.8050   -7.9620 hc        1 2SP      0.016700
     96 H152       -0.9650    2.1320   -7.3910 hc        1 2SP      0.016700
     97 H161       -2.6270    4.6680   -6.7620 hc        1 2SP      0.048700
     98 H162       -2.9750    3.0050   -6.1510 hc        1 2SP      0.048700
     99 H171       -2.8280    3.8430   -9.1360 hc        1 2SP      0.029200
    100 H172       -3.1800    2.1820   -8.5240 hc        1 2SP      0.029200
    101 H181       -5.1950    3.0590   -7.3000 hc        1 2SP      0.040700
    102 H182       -4.8480    4.7200   -7.9140 hc        1 2SP      0.040700
    103 H191       -5.0540    3.8870  -10.2840 hc        1 2SP      0.033700
    104 H192       -5.4020    2.2260   -9.6670 hc        1 2SP      0.033700
    105 H201       -7.4190    3.1030   -8.4420 hc        1 2SP      0.039700
    106 H202       -7.0720    4.7640   -9.0570 hc        1 2SP      0.039700
    107 H211       -7.2800    3.9300  -11.4250 hc        1 2SP      0.036200
    108 H212       -7.6270    2.2700  -10.8090 hc        1 2SP      0.036200
    109 H221       -9.2970    4.8070  -10.1970 hc        1 2SP      0.039700
    110 H222       -9.6430    3.1460   -9.5820 hc        1 2SP      0.039700
    111 H231       -9.5040    3.9740  -12.5650 hc        1 2SP      0.037200
    112 H232       -9.8520    2.3130  -11.9500 hc        1 2SP      0.037200
    113 H241      -11.8680    3.1900  -10.7220 hc        1 2SP      0.039200
    114 H242      -11.5210    4.8510  -11.3370 hc        1 2SP      0.039200
    115 H251      -11.7290    4.0170  -13.7050 hc        1 2SP      0.037700
    116 H252      -12.0770    2.3560  -13.0890 hc        1 2SP      0.037700
    117 H261      -14.0930    3.2340  -11.8610 hc        1 2SP      0.039200
    118 H262      -13.7460    4.8950  -12.4760 hc        1 2SP      0.039200
    119 H271      -14.3000    2.4000  -14.2270 hc        1 2SP      0.037200
    120 H272      -13.9520    4.0610  -14.8430 hc        1 2SP      0.037200
    121 H281      -16.3370    3.2680  -13.0290 hc        1 2SP      0.029700
    122 H282      -16.4060    3.6070  -14.8080 hc        1 2SP      0.029700
    123 H283      -15.9890    4.9340  -13.6460 hc        1 2SP      0.029700
@<TRIPOS>BOND
     1    1    2 1   
     2    2    3 1   
     3    2    4 1   
     4    2    5 1   
     5    5    6 1   
     6    6    7 1   
     7    6   49 1   
     8    6   50 1   
     9    7    8 1   
    10    7   28 1   
    11    7   51 1   
    12    8    9 1   
    13    9   10 2   
    14    9   11 1   
    15   11   12 1   
    16   11   52 1   
    17   11   53 1   
    18   12   13 1   
    19   12   54 1   
    20   12   55 1   
    21   13   14 1   
    22   13   56 1   
    23   13   57 1   
    24   14   15 1   
    25   14   58 1   
    26   14   59 1   
    27   15   16 1   
    28   15   60 1   
    29   15   61 1   
    30   16   17 1   
    31   16   62 1   
    32   16   63 1   
    33   17   18 1   
    34   17   64 1   
    35   17   65 1   
    36   18   19 1   
    37   18   66 1   
    38   18   67 1   
    39   19   20 1   
    40   19   68 1   
    41   19   69 1   
    42   20   21 1   
    43   20   70 1   
    44   20   71 1   
    45   21   22 1   
    46   21   72 1   
    47   21   73 1   
    48   22   23 1   
    49   22   74 1   
    50   22   75 1   
    51   23   24 1   
    52   23   76 1   
    53   23   77 1   
    54   24   25 1   
    55   24   78 1   
    56   24   79 1   
    57   25   26 1   
    58   25   80 1   
    59   25   81 1   
    60   26   27 1   
    61   26   82 1   
    62   26   83 1   
    63   27   84 1   
    64   27   85 1   
    65   27   86 1   
    66   28   29 1   
    67   28   87 1   
    68   28   88 1   
    69   29   30 1   
    70   30   31 2   
    71   30   32 1   
    72   32   33 1   
    73   32   89 1   
    74   32   90 1   
    75   33   34 1   
    76   33   91 1   
    77   33   92 1   
    78   34   35 1   
    79   34   93 1   
    80   34   94 1   
    81   35   36 1   
    82   35   95 1   
    83   35   96 1   
    84   36   37 1   
    85   36   97 1   
    86   36   98 1   
    87   37   38 1   
    88   37   99 1   
    89   37  100 1   
    90   38   39 1   
    91   38  101 1   
    92   38  102 1   
    93   39   40 1   
    94   39  103 1   
    95   39  104 1   
    96   40   41 1   
    97   40  105 1   
    98   40  106 1   
    99   41   42 1   
   100   41  107 1   
   101   41  108 1   
   102   42   43 1   
   103   42  109 1   
   104   42  110 1   
   105   43   44 1   
   106   43  111 1   
   107   43  112 1   
   108   44   45 1   
   109   44  113 1   
   110   44  114 1   
   111   45   46 1   
   112   45  115 1   
   113   45  116 1   
   114   46   47 1   
   115   46  117 1   
   116   46  118 1   
   117   47   48 1   
   118   47  119 1   
   119   47  120 1   
   120   48  121 1   
   121   48  122 1   
   122   48  123 1   
@<TRIPOS>SUBSTRUCTURE
     1 2SP         1 TEMP              0 ****  ****    0 ROOT
