@<TRIPOS>MOLECULE
2SP
  123   122     1     0     0
SMALL
bcc


@<TRIPOS>ATOM
      1 O1P        -2.3300   -0.7920    3.1500 o         1 2SP     -0.915167
      2 P          -3.3260   -1.6860    2.4440 p5        1 2SP      1.323900
      3 O2P        -2.8610   -2.3230    1.1670 o         1 2SP     -0.915167
      4 O4P        -4.2050   -2.5300    3.3160 o         1 2SP     -0.915167
      5 O3P        -4.4260   -0.4490    1.8850 os        1 2SP     -0.564200
      6 C1         -5.1940   -0.7960    0.8150 c3        1 2SP      0.234400
      7 C2         -5.3270    0.3440   -0.2300 c3        1 2SP      0.091100
      8 O2         -4.1070    0.3230   -0.9950 os        1 2SP     -0.348900
      9 C31        -4.1030    0.8390   -2.2390 c         1 2SP      0.630100
     10 O31        -5.1380    1.2870   -2.7570 o         1 2SP     -0.624000
     11 C32        -2.7340    0.7800   -2.8580 c3        1 2SP     -0.139400
     12 C33        -2.8150    0.5420   -4.3500 c3        1 2SP     -0.074400
     13 C34        -1.4410    0.6070   -4.9820 c3        1 2SP     -0.079400
     14 C35        -1.5110    0.3470   -6.4720 c3        1 2SP     -0.077400
     15 C36        -0.1390    0.4140   -7.1070 c3        1 2SP     -0.079400
     16 C37        -0.2070    0.1520   -8.5960 c3        1 2SP     -0.078400
     17 C38         1.1660    0.2190   -9.2310 c3        1 2SP     -0.079400
     18 C39         1.0980   -0.0420  -10.7200 c3        1 2SP     -0.078400
     19 C40         2.4700    0.0250  -11.3540 c3        1 2SP     -0.079400
     20 C41         2.4020   -0.2360  -12.8440 c3        1 2SP     -0.078400
     21 C42         3.7750   -0.1690  -13.4780 c3        1 2SP     -0.079400
     22 C43         3.7070   -0.4300  -14.9670 c3        1 2SP     -0.078400
     23 C44         5.0800   -0.3630  -15.6010 c3        1 2SP     -0.079400
     24 C45         5.0120   -0.6240  -17.0900 c3        1 2SP     -0.079400
     25 C46         6.3850   -0.5560  -17.7240 c3        1 2SP     -0.079400
     26 C47         6.3180   -0.8170  -19.2140 c3        1 2SP     -0.080400
     27 C48         7.6830   -0.7510  -19.8490 c3        1 2SP     -0.092100
     28 C3         -5.5570    1.7310    0.3680 c3        1 2SP      0.144400
     29 O3         -4.3280    2.2820    0.8300 os        1 2SP     -0.457900
     30 C11        -4.1910    2.4490    2.1980 c         1 2SP      0.697100
     31 O11        -5.1840    2.8810    2.7970 o         1 2SP     -0.613000
     32 C12        -2.8410    2.1020    2.6880 c3        1 2SP     -0.218400
     33 C13        -2.5420    2.6320    4.0690 c3        1 2SP     -0.037400
     34 C14        -1.4090    1.8350    4.6830 c3        1 2SP     -0.115400
     35 C15        -1.2510    2.1380    6.1560 c3        1 2SP     -0.064400
     36 C16        -0.1410    1.3050    6.7620 c3        1 2SP     -0.082400
     37 C17        -0.0020    1.5620    8.2480 c3        1 2SP     -0.076400
     38 C18         1.1050    0.7230    8.8500 c3        1 2SP     -0.080400
     39 C19         1.2420    0.9720   10.3370 c3        1 2SP     -0.077400
     40 C20         2.3480    0.1310   10.9380 c3        1 2SP     -0.079400
     41 C21         2.4850    0.3780   12.4250 c3        1 2SP     -0.078400
     42 C22         3.5910   -0.4640   13.0240 c3        1 2SP     -0.079400
     43 C23         3.7270   -0.2160   14.5110 c3        1 2SP     -0.078400
     44 C24         4.8330   -1.0580   15.1100 c3        1 2SP     -0.079400
     45 C25         4.9700   -0.8110   16.5970 c3        1 2SP     -0.078400
     46 C26         6.0760   -1.6530   17.1960 c3        1 2SP     -0.079400
     47 C27         6.2140   -1.4060   18.6830 c3        1 2SP     -0.080400
     48 C28         7.3140   -2.2430   19.2830 c3        1 2SP     -0.091100
     49 H11        -6.2680   -0.9870    1.1300 h1        1 2SP      0.012700
     50 H12        -4.7770   -1.7060    0.2930 h1        1 2SP      0.012700
     51 H2         -6.1870    0.1170   -0.9210 h1        1 2SP      0.023700
     52 H321       -2.2280    1.7570   -2.6400 hc        1 2SP      0.083700
     53 H322       -2.1420   -0.0310   -2.3540 hc        1 2SP      0.083700
     54 H331       -3.2730   -0.4630   -4.5420 hc        1 2SP      0.047200
     55 H332       -3.4910    1.3080   -4.8150 hc        1 2SP      0.047200
     56 H341       -0.9890    1.6170   -4.7980 hc        1 2SP      0.040700
     57 H342       -0.7700   -0.1500   -4.4980 hc        1 2SP      0.040700
     58 H351       -1.9610   -0.6640   -6.6550 hc        1 2SP      0.036700
     59 H352       -2.1870    1.1020   -6.9540 hc        1 2SP      0.036700
     60 H361        0.3120    1.4250   -6.9230 hc        1 2SP      0.039200
     61 H362        0.5360   -0.3410   -6.6230 hc        1 2SP      0.039200
     62 H371       -0.6570   -0.8590   -8.7790 hc        1 2SP      0.036700
     63 H372       -0.8820    0.9060   -9.0800 hc        1 2SP      0.036700
     64 H381        1.6160    1.2300   -9.0470 hc        1 2SP      0.039200
     65 H382        1.8400   -0.5350   -8.7470 hc        1 2SP      0.039200
     66 H391        0.6480   -1.0540  -10.9040 hc        1 2SP      0.037700
     67 H392        0.4220    0.7120  -11.2040 hc        1 2SP      0.037700
     68 H401        2.9200    1.0360  -11.1700 hc        1 2SP      0.038700
     69 H402        3.1450   -0.7300  -10.8700 hc        1 2SP      0.038700
     70 H411        1.9520   -1.2480  -13.0270 hc        1 2SP      0.038200
     71 H412        1.7270    0.5180  -13.3270 hc        1 2SP      0.038200
     72 H421        4.2250    0.8420  -13.2930 hc        1 2SP      0.039200
     73 H422        4.4500   -0.9240  -12.9940 hc        1 2SP      0.039200
     74 H431        3.2570   -1.4420  -15.1510 hc        1 2SP      0.038200
     75 H432        3.0320    0.3240  -15.4500 hc        1 2SP      0.038200
     76 H441        5.5300    0.6480  -15.4160 hc        1 2SP      0.039200
     77 H442        5.7550   -1.1170  -15.1170 hc        1 2SP      0.039200
     78 H451        4.5620   -1.6350  -17.2740 hc        1 2SP      0.038700
     79 H452        4.3370    0.1310  -17.5730 hc        1 2SP      0.038700
     80 H461        6.8350    0.4550  -17.5400 hc        1 2SP      0.039200
     81 H462        7.0590   -1.3110  -17.2410 hc        1 2SP      0.039200
     82 H471        5.8660   -1.8280  -19.3960 hc        1 2SP      0.037700
     83 H472        5.6410   -0.0620  -19.6950 hc        1 2SP      0.037700
     84 H481        7.6110   -0.9460  -20.9460 hc        1 2SP      0.030700
     85 H482        8.1390    0.2580  -19.6990 hc        1 2SP      0.030700
     86 H483        8.3640   -1.5130  -19.3990 hc        1 2SP      0.030700
     87 H31        -6.3090    1.6540    1.1950 h1        1 2SP      0.042700
     88 H32        -5.9160    2.4390   -0.4280 h1        1 2SP      0.042700
     89 H121       -2.0630    2.4090    1.9480 hc        1 2SP      0.152700
     90 H122       -2.8170    0.9240    2.7140 hc        1 2SP      0.152700
     91 H131       -3.4610    2.5370    4.7060 hc        1 2SP      0.013200
     92 H132       -2.2760    3.7220    4.0300 hc        1 2SP      0.013200
     93 H141       -0.4520    2.0680    4.1470 hc        1 2SP      0.090200
     94 H142       -1.6200    0.7310    4.5180 hc        1 2SP      0.090200
     95 H151       -2.2150    1.9170    6.6870 hc        1 2SP      0.016700
     96 H152       -1.0310    3.2280    6.3090 hc        1 2SP      0.016700
     97 H161        0.8280    1.5390    6.2480 hc        1 2SP      0.048700
     98 H162       -0.3580    0.2190    6.5810 hc        1 2SP      0.048700
     99 H171       -0.9720    1.3260    8.7600 hc        1 2SP      0.029200
    100 H172        0.2100    2.6480    8.4270 hc        1 2SP      0.029200
    101 H181        2.0750    0.9580    8.3390 hc        1 2SP      0.040700
    102 H182        0.8910   -0.3630    8.6680 hc        1 2SP      0.040700
    103 H191        0.2710    0.7350   10.8470 hc        1 2SP      0.033700
    104 H192        1.4540    2.0580   10.5190 hc        1 2SP      0.033700
    105 H201        3.3180    0.3660   10.4260 hc        1 2SP      0.039700
    106 H202        2.1340   -0.9560   10.7550 hc        1 2SP      0.039700
    107 H211        1.5140    0.1420   12.9350 hc        1 2SP      0.036200
    108 H212        2.6980    1.4640   12.6070 hc        1 2SP      0.036200
    109 H221        4.5610   -0.2290   12.5130 hc        1 2SP      0.039700
    110 H222        3.3760   -1.5500   12.8420 hc        1 2SP      0.039700
    111 H231        2.7570   -0.4520   15.0220 hc        1 2SP      0.037200
    112 H232        3.9410    0.8700   14.6930 hc        1 2SP      0.037200
    113 H241        5.8040   -0.8230   14.5980 hc        1 2SP      0.039200
    114 H242        4.6190   -2.1440   14.9280 hc        1 2SP      0.039200
    115 H251        3.9990   -1.0460   17.1080 hc        1 2SP      0.037700
    116 H252        5.1840    0.2760   16.7790 hc        1 2SP      0.037700
    117 H261        7.0470   -1.4180   16.6840 hc        1 2SP      0.039200
    118 H262        5.8620   -2.7390   17.0140 hc        1 2SP      0.039200
    119 H271        5.2420   -1.6410   19.1920 hc        1 2SP      0.037200
    120 H272        6.4270   -0.3190   18.8630 hc        1 2SP      0.037200
    121 H281        7.3990   -2.0460   20.3790 hc        1 2SP      0.029700
    122 H282        7.1070   -3.3310   19.1350 hc        1 2SP      0.029700
    123 H283        8.2950   -2.0060   18.8050 hc        1 2SP      0.029700
@<TRIPOS>BOND
     1    1    2 1   
     2    2    3 1   
     3    2    4 1   
     4    2    5 1   
     5    5    6 1   
     6    6    7 1   
     7    6   49 1   
     8    6   50 1   
     9    7    8 1   
    10    7   28 1   
    11    7   51 1   
    12    8    9 1   
    13    9   10 2   
    14    9   11 1   
    15   11   12 1   
    16   11   52 1   
    17   11   53 1   
    18   12   13 1   
    19   12   54 1   
    20   12   55 1   
    21   13   14 1   
    22   13   56 1   
    23   13   57 1   
    24   14   15 1   
    25   14   58 1   
    26   14   59 1   
    27   15   16 1   
    28   15   60 1   
    29   15   61 1   
    30   16   17 1   
    31   16   62 1   
    32   16   63 1   
    33   17   18 1   
    34   17   64 1   
    35   17   65 1   
    36   18   19 1   
    37   18   66 1   
    38   18   67 1   
    39   19   20 1   
    40   19   68 1   
    41   19   69 1   
    42   20   21 1   
    43   20   70 1   
    44   20   71 1   
    45   21   22 1   
    46   21   72 1   
    47   21   73 1   
    48   22   23 1   
    49   22   74 1   
    50   22   75 1   
    51   23   24 1   
    52   23   76 1   
    53   23   77 1   
    54   24   25 1   
    55   24   78 1   
    56   24   79 1   
    57   25   26 1   
    58   25   80 1   
    59   25   81 1   
    60   26   27 1   
    61   26   82 1   
    62   26   83 1   
    63   27   84 1   
    64   27   85 1   
    65   27   86 1   
    66   28   29 1   
    67   28   87 1   
    68   28   88 1   
    69   29   30 1   
    70   30   31 2   
    71   30   32 1   
    72   32   33 1   
    73   32   89 1   
    74   32   90 1   
    75   33   34 1   
    76   33   91 1   
    77   33   92 1   
    78   34   35 1   
    79   34   93 1   
    80   34   94 1   
    81   35   36 1   
    82   35   95 1   
    83   35   96 1   
    84   36   37 1   
    85   36   97 1   
    86   36   98 1   
    87   37   38 1   
    88   37   99 1   
    89   37  100 1   
    90   38   39 1   
    91   38  101 1   
    92   38  102 1   
    93   39   40 1   
    94   39  103 1   
    95   39  104 1   
    96   40   41 1   
    97   40  105 1   
    98   40  106 1   
    99   41   42 1   
   100   41  107 1   
   101   41  108 1   
   102   42   43 1   
   103   42  109 1   
   104   42  110 1   
   105   43   44 1   
   106   43  111 1   
   107   43  112 1   
   108   44   45 1   
   109   44  113 1   
   110   44  114 1   
   111   45   46 1   
   112   45  115 1   
   113   45  116 1   
   114   46   47 1   
   115   46  117 1   
   116   46  118 1   
   117   47   48 1   
   118   47  119 1   
   119   47  120 1   
   120   48  121 1   
   121   48  122 1   
   122   48  123 1   
@<TRIPOS>SUBSTRUCTURE
     1 2SP         1 TEMP              0 ****  ****    0 ROOT
