@<TRIPOS>MOLECULE
2SQ
   60    63     1     0     0
SMALL
bcc


@<TRIPOS>ATOM
      1 C01         0.0950   -0.5430   -0.0380 c3        1 2SQ     -0.091800
      2 C05         1.5060   -0.0930   -0.0260 ca        1 2SQ     -0.006300
      3 C06         2.2070    0.0070    1.1890 ca        1 2SQ     -0.134300
      4 C07         1.5490   -0.3800    2.4670 c3        1 2SQ     -0.029100
      5 C10         2.5510   -0.5530    3.5900 c3        1 2SQ     -0.112400
      6 C13         3.5690    0.5670    3.5610 c3        1 2SQ      0.131400
      7 O16         4.3040    0.5940    2.3350 os        1 2SQ     -0.321900
      8 C17         3.5340    0.4580    1.1920 ca        1 2SQ      0.085100
      9 C18         4.1880    0.7740   -0.0210 ca        1 2SQ      0.071900
     10 F19         5.4730    1.2060   -0.0170 f         1 2SQ     -0.144900
     11 C20         3.4940    0.6260   -1.2300 ca        1 2SQ     -0.128000
     12 C22         2.1630    0.2010   -1.2380 ca        1 2SQ     -0.021800
     13 C23         1.4690    0.1030   -2.5280 cc        1 2SQ     -0.183400
     14 C24         1.4060   -1.0850   -3.2500 cd        1 2SQ      0.166400
     15 C25         1.9960   -2.3460   -2.6320 c3        1 2SQ      0.028300
     16 O27         2.9940   -2.8270   -3.5380 os        1 2SQ     -0.422600
     17 C28         3.9960   -3.6810   -2.9670 c3        1 2SQ      0.165800
     18 C29         4.7240   -4.2480   -4.1880 c3        1 2SQ     -0.112100
     19 C33         4.9690   -2.8670   -2.1220 c3        1 2SQ     -0.112100
     20 C37         3.3930   -4.8130   -2.1520 c3        1 2SQ     -0.112100
     21 C41         0.8920   -3.4130   -2.3130 c         1 2SQ      0.906600
     22 O42         0.4440   -4.1410   -3.2340 o         1 2SQ     -0.816800
     23 O44         0.5420   -3.4850   -1.1020 o         1 2SQ     -0.816800
     24 N45         0.8020   -1.1310   -4.4980 n         1 2SQ     -0.310000
     25 C46         0.6980   -2.3490   -5.2750 c3        1 2SQ      0.063300
     26 C50         0.1880    0.0080   -5.0570 c         1 2SQ      0.692100
     27 O51        -0.3550   -0.0750   -6.1830 o         1 2SQ     -0.667500
     28 C52         0.2250    1.2620   -4.2940 ca        1 2SQ     -0.178600
     29 C53        -0.3820    2.4140   -4.8270 ca        1 2SQ     -0.060000
     30 C55        -0.3540    3.6030   -4.1210 ca        1 2SQ     -0.187000
     31 C57         0.2830    3.6550   -2.8690 ca        1 2SQ     -0.104000
     32 C59         0.8800    2.5300   -2.3360 ca        1 2SQ     -0.157000
     33 C61         0.8630    1.3020   -3.0400 ca        1 2SQ      0.055200
     34 H1          0.0680   -1.6680   -0.1280 hc        1 2SQ      0.069700
     35 H2         -0.4430   -0.2350    0.8910 hc        1 2SQ      0.069700
     36 H3         -0.4490   -0.1170   -0.9170 hc        1 2SQ      0.069700
     37 H4          0.7970    0.4070    2.7470 hc        1 2SQ      0.059700
     38 H5          0.9880   -1.3430    2.3180 hc        1 2SQ      0.059700
     39 H6          3.0780   -1.5370    3.4750 hc        1 2SQ      0.052700
     40 H7          2.0250   -0.5570    4.5780 hc        1 2SQ      0.052700
     41 H8          4.3670    0.4250    4.3370 h1        1 2SQ      0.046200
     42 H9          3.0710    1.5620    3.7020 h1        1 2SQ      0.046200
     43 H10         4.0090    0.8490   -2.1770 ha        1 2SQ      0.151000
     44 H11         2.4830   -2.0720   -1.6540 h1        1 2SQ      0.065700
     45 H12         4.0020   -4.8080   -4.8280 hc        1 2SQ      0.042144
     46 H13         5.1670   -3.4190   -4.7890 hc        1 2SQ      0.042144
     47 H14         5.5350   -4.9350   -3.8530 hc        1 2SQ      0.042144
     48 H15         5.2850   -1.9520   -2.6770 hc        1 2SQ      0.042144
     49 H16         4.4940   -2.5560   -1.1620 hc        1 2SQ      0.042144
     50 H17         5.8700   -3.4820   -1.8890 hc        1 2SQ      0.042144
     51 H18         2.9310   -4.4180   -1.2130 hc        1 2SQ      0.042144
     52 H19         2.5850   -5.3130   -2.7430 hc        1 2SQ      0.042144
     53 H20         4.1840   -5.5540   -1.8890 hc        1 2SQ      0.042144
     54 H22        -0.3310   -2.7800   -5.1450 h1        1 2SQ      0.073033
     55 H23         0.8670   -2.1010   -6.3570 h1        1 2SQ      0.073033
     56 H24         1.4420   -3.1200   -4.9400 h1        1 2SQ      0.073033
     57 H25        -0.8750    2.3420   -5.8100 ha        1 2SQ      0.147000
     58 H26        -0.8260    4.5060   -4.5310 ha        1 2SQ      0.120000
     59 H27         0.3020    4.6040   -2.3120 ha        1 2SQ      0.117000
     60 H28         1.3770    2.5720   -1.3550 ha        1 2SQ      0.139000
@<TRIPOS>BOND
     1    1    2 1   
     2    1   34 1   
     3    1   35 1   
     4    1   36 1   
     5    2    3 ar  
     6    2   12 ar  
     7    3    4 1   
     8    3    8 ar  
     9    4    5 1   
    10    4   37 1   
    11    4   38 1   
    12    5    6 1   
    13    5   39 1   
    14    5   40 1   
    15    6    7 1   
    16    6   41 1   
    17    6   42 1   
    18    7    8 1   
    19    8    9 ar  
    20    9   10 1   
    21    9   11 ar  
    22   11   12 ar  
    23   11   43 1   
    24   12   13 1   
    25   13   14 2   
    26   13   33 1   
    27   14   15 1   
    28   14   24 1   
    29   15   16 1   
    30   15   21 1   
    31   15   44 1   
    32   16   17 1   
    33   17   18 1   
    34   17   19 1   
    35   17   20 1   
    36   18   45 1   
    37   18   46 1   
    38   18   47 1   
    39   19   48 1   
    40   19   49 1   
    41   19   50 1   
    42   20   51 1   
    43   20   52 1   
    44   20   53 1   
    45   21   22 1   
    46   21   23 1   
    47   24   25 1   
    48   24   26 1   
    49   25   54 1   
    50   25   55 1   
    51   25   56 1   
    52   26   27 2   
    53   26   28 1   
    54   28   29 ar  
    55   28   33 ar  
    56   29   30 ar  
    57   29   57 1   
    58   30   31 ar  
    59   30   58 1   
    60   31   32 ar  
    61   31   59 1   
    62   32   33 ar  
    63   32   60 1   
@<TRIPOS>SUBSTRUCTURE
     1 2SQ         1 TEMP              0 ****  ****    0 ROOT
