@<TRIPOS>MOLECULE
2SQ
   60    63     1     0     0
SMALL
bcc


@<TRIPOS>ATOM
      1 C01         0.0950   -0.5410   -0.0370 c3        1 2SQ     -0.091800
      2 C05         1.5050   -0.0890   -0.0270 ca        1 2SQ     -0.006300
      3 C06         2.2070    0.0130    1.1870 ca        1 2SQ     -0.134300
      4 C07         1.5510   -0.3770    2.4660 c3        1 2SQ     -0.029100
      5 C10         2.5550   -0.5480    3.5870 c3        1 2SQ     -0.112400
      6 C13         3.5700    0.5740    3.5580 c3        1 2SQ      0.131400
      7 O16         4.3040    0.6030    2.3310 os        1 2SQ     -0.321900
      8 C17         3.5330    0.4650    1.1890 ca        1 2SQ      0.085100
      9 C18         4.1860    0.7830   -0.0250 ca        1 2SQ      0.071900
     10 F19         5.4700    1.2180   -0.0220 f         1 2SQ     -0.144900
     11 C20         3.4900    0.6350   -1.2330 ca        1 2SQ     -0.128000
     12 C22         2.1590    0.2060   -1.2390 ca        1 2SQ     -0.021800
     13 C23         1.4640    0.1080   -2.5290 cc        1 2SQ     -0.183400
     14 C24         1.4030   -1.0800   -3.2510 cd        1 2SQ      0.166400
     15 C25         1.9950   -2.3400   -2.6350 c3        1 2SQ      0.028300
     16 O27         2.9930   -2.8190   -3.5410 os        1 2SQ     -0.422600
     17 C28         3.9970   -3.6720   -2.9720 c3        1 2SQ      0.165800
     18 C29         4.7250   -4.2370   -4.1940 c3        1 2SQ     -0.112100
     19 C33         4.9690   -2.8570   -2.1270 c3        1 2SQ     -0.112100
     20 C37         3.3960   -4.8050   -2.1570 c3        1 2SQ     -0.112100
     21 C41         0.8930   -3.4080   -2.3150 c         1 2SQ      0.906600
     22 O42         0.4460   -4.1370   -3.2360 o         1 2SQ     -0.816800
     23 O44         0.5450   -3.4830   -1.1040 o         1 2SQ     -0.816800
     24 N45         0.7980   -1.1260   -4.4980 n         1 2SQ     -0.310000
     25 C46         0.6950   -2.3440   -5.2770 c3        1 2SQ      0.063300
     26 C50         0.1810    0.0130   -5.0570 c         1 2SQ      0.692100
     27 O51        -0.3620   -0.0710   -6.1820 o         1 2SQ     -0.667500
     28 C52         0.2170    1.2660   -4.2930 ca        1 2SQ     -0.178600
     29 C53        -0.3930    2.4170   -4.8240 ca        1 2SQ     -0.060000
     30 C55        -0.3660    3.6060   -4.1180 ca        1 2SQ     -0.187000
     31 C57         0.2710    3.6590   -2.8660 ca        1 2SQ     -0.104000
     32 C59         0.8710    2.5340   -2.3340 ca        1 2SQ     -0.157000
     33 C61         0.8550    1.3060   -3.0400 ca        1 2SQ      0.055200
     34 H1         -0.4430   -0.2350    0.8920 hc        1 2SQ      0.069700
     35 H2          0.0690   -1.6660   -0.1280 hc        1 2SQ      0.069700
     36 H3         -0.4510   -0.1160   -0.9160 hc        1 2SQ      0.069700
     37 H4          0.9920   -1.3410    2.3170 hc        1 2SQ      0.059700
     38 H5          0.7980    0.4090    2.7470 hc        1 2SQ      0.059700
     39 H6          3.0840   -1.5300    3.4720 hc        1 2SQ      0.052700
     40 H7          2.0300   -0.5530    4.5760 hc        1 2SQ      0.052700
     41 H8          3.0700    1.5680    3.7000 h1        1 2SQ      0.046200
     42 H9          4.3700    0.4340    4.3330 h1        1 2SQ      0.046200
     43 H10         4.0030    0.8580   -2.1810 ha        1 2SQ      0.151000
     44 H11         2.4830   -2.0650   -1.6570 h1        1 2SQ      0.065700
     45 H12         5.1660   -3.4070   -4.7940 hc        1 2SQ      0.042144
     46 H13         4.0040   -4.7980   -4.8330 hc        1 2SQ      0.042144
     47 H14         5.5370   -4.9230   -3.8590 hc        1 2SQ      0.042144
     48 H15         5.8720   -3.4700   -1.8950 hc        1 2SQ      0.042144
     49 H16         5.2820   -1.9410   -2.6810 hc        1 2SQ      0.042144
     50 H17         4.4950   -2.5480   -1.1650 hc        1 2SQ      0.042144
     51 H18         4.1880   -5.5450   -1.8950 hc        1 2SQ      0.042144
     52 H19         2.9340   -4.4120   -1.2180 hc        1 2SQ      0.042144
     53 H20         2.5890   -5.3060   -2.7470 hc        1 2SQ      0.042144
     54 H22         1.4410   -3.1140   -4.9420 h1        1 2SQ      0.073033
     55 H23         0.8640   -2.0950   -6.3590 h1        1 2SQ      0.073033
     56 H24        -0.3330   -2.7760   -5.1460 h1        1 2SQ      0.073033
     57 H25        -0.8860    2.3450   -5.8070 ha        1 2SQ      0.147000
     58 H26        -0.8400    4.5080   -4.5270 ha        1 2SQ      0.120000
     59 H27         0.2890    4.6070   -2.3090 ha        1 2SQ      0.117000
     60 H28         1.3690    2.5770   -1.3540 ha        1 2SQ      0.139000
@<TRIPOS>BOND
     1    1    2 1   
     2    1   34 1   
     3    1   35 1   
     4    1   36 1   
     5    2    3 ar  
     6    2   12 ar  
     7    3    4 1   
     8    3    8 ar  
     9    4    5 1   
    10    4   37 1   
    11    4   38 1   
    12    5    6 1   
    13    5   39 1   
    14    5   40 1   
    15    6    7 1   
    16    6   41 1   
    17    6   42 1   
    18    7    8 1   
    19    8    9 ar  
    20    9   10 1   
    21    9   11 ar  
    22   11   12 ar  
    23   11   43 1   
    24   12   13 1   
    25   13   14 2   
    26   13   33 1   
    27   14   15 1   
    28   14   24 1   
    29   15   16 1   
    30   15   21 1   
    31   15   44 1   
    32   16   17 1   
    33   17   18 1   
    34   17   19 1   
    35   17   20 1   
    36   18   45 1   
    37   18   46 1   
    38   18   47 1   
    39   19   48 1   
    40   19   49 1   
    41   19   50 1   
    42   20   51 1   
    43   20   52 1   
    44   20   53 1   
    45   21   22 1   
    46   21   23 1   
    47   24   25 1   
    48   24   26 1   
    49   25   54 1   
    50   25   55 1   
    51   25   56 1   
    52   26   27 2   
    53   26   28 1   
    54   28   29 ar  
    55   28   33 ar  
    56   29   30 ar  
    57   29   57 1   
    58   30   31 ar  
    59   30   58 1   
    60   31   32 ar  
    61   31   59 1   
    62   32   33 ar  
    63   32   60 1   
@<TRIPOS>SUBSTRUCTURE
     1 2SQ         1 TEMP              0 ****  ****    0 ROOT
