@<TRIPOS>MOLECULE
2SQ
   60    63     1     0     0
SMALL
bcc


@<TRIPOS>ATOM
      1 C01         0.0900   -0.5330   -0.0440 c3        1 2SQ     -0.091800
      2 C05         1.5020   -0.0850   -0.0300 ca        1 2SQ     -0.006300
      3 C06         2.1990    0.0170    1.1860 ca        1 2SQ     -0.134300
      4 C07         1.5380   -0.3680    2.4630 c3        1 2SQ     -0.029100
      5 C10         2.5380   -0.5410    3.5890 c3        1 2SQ     -0.112400
      6 C13         3.5570    0.5780    3.5610 c3        1 2SQ      0.131400
      7 O16         4.2950    0.6030    2.3370 os        1 2SQ     -0.321900
      8 C17         3.5280    0.4660    1.1920 ca        1 2SQ      0.085100
      9 C18         4.1850    0.7800   -0.0210 ca        1 2SQ      0.071900
     10 F19         5.4700    1.2100   -0.0140 f         1 2SQ     -0.144900
     11 C20         3.4940    0.6310   -1.2310 ca        1 2SQ     -0.128000
     12 C22         2.1610    0.2060   -1.2410 ca        1 2SQ     -0.021800
     13 C23         1.4700    0.1080   -2.5330 cc        1 2SQ     -0.183400
     14 C24         1.4090   -1.0820   -3.2530 cd        1 2SQ      0.166400
     15 C25         1.9950   -2.3420   -2.6320 c3        1 2SQ      0.028300
     16 O27         2.9950   -2.8250   -3.5350 os        1 2SQ     -0.422600
     17 C28         3.9940   -3.6810   -2.9600 c3        1 2SQ      0.165800
     18 C29         4.7240   -4.2500   -4.1780 c3        1 2SQ     -0.112100
     19 C33         4.9660   -2.8660   -2.1140 c3        1 2SQ     -0.112100
     20 C37         3.3880   -4.8100   -2.1440 c3        1 2SQ     -0.112100
     21 C41         0.8890   -3.4070   -2.3140 c         1 2SQ      0.906600
     22 O42         0.4420   -4.1360   -3.2340 o         1 2SQ     -0.816800
     23 O44         0.5370   -3.4780   -1.1030 o         1 2SQ     -0.816800
     24 N45         0.8080   -1.1290   -4.5020 n         1 2SQ     -0.310000
     25 C46         0.7040   -2.3480   -5.2780 c3        1 2SQ      0.063300
     26 C50         0.1960    0.0110   -5.0650 c         1 2SQ      0.692100
     27 O51        -0.3440   -0.0740   -6.1920 o         1 2SQ     -0.667500
     28 C52         0.2320    1.2660   -4.3030 ca        1 2SQ     -0.178600
     29 C53        -0.3730    2.4170   -4.8390 ca        1 2SQ     -0.060000
     30 C55        -0.3450    3.6080   -4.1340 ca        1 2SQ     -0.187000
     31 C57         0.2880    3.6610   -2.8810 ca        1 2SQ     -0.104000
     32 C59         0.8830    2.5350   -2.3450 ca        1 2SQ     -0.157000
     33 C61         0.8670    1.3060   -3.0480 ca        1 2SQ      0.055200
     34 H1         -0.4500   -0.2230    0.8820 hc        1 2SQ      0.069700
     35 H2          0.0620   -1.6580   -0.1330 hc        1 2SQ      0.069700
     36 H3         -0.4510   -0.1080   -0.9260 hc        1 2SQ      0.069700
     37 H4          0.9770   -1.3310    2.3140 hc        1 2SQ      0.059700
     38 H5          0.7860    0.4200    2.7400 hc        1 2SQ      0.059700
     39 H6          2.0090   -0.5420    4.5750 hc        1 2SQ      0.052700
     40 H7          3.0640   -1.5240    3.4770 hc        1 2SQ      0.052700
     41 H8          4.3530    0.4370    4.3390 h1        1 2SQ      0.046200
     42 H9          3.0590    1.5750    3.6990 h1        1 2SQ      0.046200
     43 H10         4.0100    0.8510   -2.1770 ha        1 2SQ      0.151000
     44 H11         2.4800   -2.0670   -1.6530 h1        1 2SQ      0.065700
     45 H12         5.1690   -3.4230   -4.7790 hc        1 2SQ      0.042144
     46 H13         5.5330   -4.9380   -3.8400 hc        1 2SQ      0.042144
     47 H14         4.0030   -4.8110   -4.8190 hc        1 2SQ      0.042144
     48 H15         4.4900   -2.5530   -1.1550 hc        1 2SQ      0.042144
     49 H16         5.8660   -3.4820   -1.8780 hc        1 2SQ      0.042144
     50 H17         5.2840   -1.9530   -2.6700 hc        1 2SQ      0.042144
     51 H18         2.5810   -5.3100   -2.7360 hc        1 2SQ      0.042144
     52 H19         2.9240   -4.4130   -1.2070 hc        1 2SQ      0.042144
     53 H20         4.1770   -5.5520   -1.8780 hc        1 2SQ      0.042144
     54 H22         0.8770   -2.1010   -6.3600 h1        1 2SQ      0.073033
     55 H23        -0.3270   -2.7770   -5.1510 h1        1 2SQ      0.073033
     56 H24         1.4460   -3.1190   -4.9390 h1        1 2SQ      0.073033
     57 H25        -0.8630    2.3450   -5.8230 ha        1 2SQ      0.147000
     58 H26        -0.8150    4.5100   -4.5470 ha        1 2SQ      0.120000
     59 H27         0.3070    4.6100   -2.3260 ha        1 2SQ      0.117000
     60 H28         1.3780    2.5790   -1.3630 ha        1 2SQ      0.139000
@<TRIPOS>BOND
     1    1    2 1   
     2    1   34 1   
     3    1   35 1   
     4    1   36 1   
     5    2    3 ar  
     6    2   12 ar  
     7    3    4 1   
     8    3    8 ar  
     9    4    5 1   
    10    4   37 1   
    11    4   38 1   
    12    5    6 1   
    13    5   39 1   
    14    5   40 1   
    15    6    7 1   
    16    6   41 1   
    17    6   42 1   
    18    7    8 1   
    19    8    9 ar  
    20    9   10 1   
    21    9   11 ar  
    22   11   12 ar  
    23   11   43 1   
    24   12   13 1   
    25   13   14 2   
    26   13   33 1   
    27   14   15 1   
    28   14   24 1   
    29   15   16 1   
    30   15   21 1   
    31   15   44 1   
    32   16   17 1   
    33   17   18 1   
    34   17   19 1   
    35   17   20 1   
    36   18   45 1   
    37   18   46 1   
    38   18   47 1   
    39   19   48 1   
    40   19   49 1   
    41   19   50 1   
    42   20   51 1   
    43   20   52 1   
    44   20   53 1   
    45   21   22 1   
    46   21   23 1   
    47   24   25 1   
    48   24   26 1   
    49   25   54 1   
    50   25   55 1   
    51   25   56 1   
    52   26   27 2   
    53   26   28 1   
    54   28   29 ar  
    55   28   33 ar  
    56   29   30 ar  
    57   29   57 1   
    58   30   31 ar  
    59   30   58 1   
    60   31   32 ar  
    61   31   59 1   
    62   32   33 ar  
    63   32   60 1   
@<TRIPOS>SUBSTRUCTURE
     1 2SQ         1 TEMP              0 ****  ****    0 ROOT
