@<TRIPOS>MOLECULE
2SR
   54    57     1     0     0
SMALL
bcc


@<TRIPOS>ATOM
      1 C01        -0.1620    0.1220   -0.1010 c3        1 2SR     -0.108400
      2 C02         1.3480    0.1030    0.0790 c3        1 2SR     -0.085700
      3 C03         1.6900    0.4110    1.5290 c3        1 2SR     -0.108400
      4 C04         0.9450   -0.5260    2.4620 c3        1 2SR      0.127900
      5 O05        -0.4630   -0.4810    2.2470 os        1 2SR     -0.417600
      6 C06        -0.8280   -0.7960    0.9090 c3        1 2SR      0.127900
      7 C07         2.0260    1.1160   -0.8550 c3        1 2SR      0.211300
      8 C08         2.4670    0.3090   -3.1440 ce        1 2SR      0.175900
      9 C09         3.7790   -0.1550   -2.7100 ca        1 2SR     -0.127800
     10 C10         4.2000    0.2320   -1.4190 ca        1 2SR      0.157100
     11 O11         3.4510    1.0790   -0.6310 os        1 2SR     -0.323900
     12 C12         1.6320    0.9160   -2.2740 c2        1 2SR     -0.331200
     13 O13         2.1820    0.0810   -4.4690 oh        1 2SR     -0.492100
     14 C14         4.6040   -0.9510   -3.5060 ca        1 2SR     -0.059000
     15 C15         5.8490   -1.3660   -3.0300 ca        1 2SR     -0.114300
     16 C16         6.2600   -0.9800   -1.7500 ca        1 2SR     -0.084000
     17 C17         5.4550   -0.1860   -0.9230 cp        1 2SR     -0.058000
     18 C18         6.7290   -2.2160   -3.8660 c3        1 2SR     -0.048800
     19 C19         5.9340    0.1860    0.4060 cp        1 2SR     -0.032000
     20 C20         6.5650   -0.7820    1.2080 ca        1 2SR     -0.172000
     21 C21         7.0480   -0.4410    2.4690 ca        1 2SR      0.096100
     22 C22         6.9080    0.8910    2.9450 ca        1 2SR      0.106100
     23 C23         6.2800    1.8450    2.1450 ca        1 2SR     -0.185000
     24 C24         5.7950    1.4900    0.8840 ca        1 2SR     -0.099000
     25 O25         7.6810   -1.3120    3.3340 os        1 2SR     -0.304900
     26 O26         7.4230    1.1270    4.2040 os        1 2SR     -0.303900
     27 C27         7.7820   -2.6610    2.8950 c3        1 2SR      0.110700
     28 C28         7.2970    2.4600    4.6860 c3        1 2SR      0.110700
     29 H1         -0.4330   -0.2140   -1.1350 hc        1 2SR      0.055450
     30 H2         -0.5420    1.1680    0.0350 hc        1 2SR      0.055450
     31 H3          1.7350   -0.9230   -0.1760 hc        1 2SR      0.061700
     32 H4          1.4090    1.4710    1.7620 hc        1 2SR      0.055450
     33 H5          2.7940    0.3050    1.6870 hc        1 2SR      0.055450
     34 H6          1.3080   -1.5810    2.3340 h1        1 2SR      0.046700
     35 H7          1.0650   -0.2110    3.5330 h1        1 2SR      0.046700
     36 H8         -0.5670   -1.8670    0.6940 h1        1 2SR      0.046700
     37 H9         -1.9430   -0.6680    0.8960 h1        1 2SR      0.046700
     38 H10         1.7680    2.1670   -0.5240 h1        1 2SR      0.079700
     39 H11         0.6370    1.2800   -2.5580 ha        1 2SR      0.143000
     40 H12         1.3000    0.4390   -4.6490 ho        1 2SR      0.422000
     41 H13         4.2630   -1.2390   -4.5130 ha        1 2SR      0.152000
     42 H14         7.2470   -1.3030   -1.3800 ha        1 2SR      0.139000
     43 H15         6.4570   -2.1350   -4.9470 hc        1 2SR      0.044367
     44 H16         7.7990   -1.9160   -3.7470 hc        1 2SR      0.044367
     45 H17         6.6300   -3.2880   -3.5590 hc        1 2SR      0.044367
     46 H18         6.6630   -1.8110    0.8320 ha        1 2SR      0.141000
     47 H19         6.1600    2.8790    2.4960 ha        1 2SR      0.140000
     48 H20         5.2880    2.2470    0.2650 ha        1 2SR      0.150000
     49 H21         8.2930   -3.1730    3.7490 h1        1 2SR      0.042700
     50 H22         8.4020   -2.7300    1.9680 h1        1 2SR      0.042700
     51 H23         6.7690   -3.1000    2.7210 h1        1 2SR      0.042700
     52 H24         7.8410    3.1750    4.0220 h1        1 2SR      0.043700
     53 H25         7.7780    2.4150    5.6960 h1        1 2SR      0.043700
     54 H26         6.2210    2.7490    4.7750 h1        1 2SR      0.043700
@<TRIPOS>BOND
     1    1    2 1   
     2    1    6 1   
     3    1   29 1   
     4    1   30 1   
     5    2    3 1   
     6    2    7 1   
     7    2   31 1   
     8    3    4 1   
     9    3   32 1   
    10    3   33 1   
    11    4    5 1   
    12    4   34 1   
    13    4   35 1   
    14    5    6 1   
    15    6   36 1   
    16    6   37 1   
    17    7   11 1   
    18    7   12 1   
    19    7   38 1   
    20    8    9 1   
    21    8   12 2   
    22    8   13 1   
    23    9   10 ar  
    24    9   14 ar  
    25   10   11 1   
    26   10   17 ar  
    27   12   39 1   
    28   13   40 1   
    29   14   15 ar  
    30   14   41 1   
    31   15   16 ar  
    32   15   18 1   
    33   16   17 ar  
    34   16   42 1   
    35   17   19 1   
    36   18   43 1   
    37   18   44 1   
    38   18   45 1   
    39   19   20 ar  
    40   19   24 ar  
    41   20   21 ar  
    42   20   46 1   
    43   21   22 ar  
    44   21   25 1   
    45   22   23 ar  
    46   22   26 1   
    47   23   24 ar  
    48   23   47 1   
    49   24   48 1   
    50   25   27 1   
    51   26   28 1   
    52   27   49 1   
    53   27   50 1   
    54   27   51 1   
    55   28   52 1   
    56   28   53 1   
    57   28   54 1   
@<TRIPOS>SUBSTRUCTURE
     1 2SR         1 TEMP              0 ****  ****    0 ROOT
