@<TRIPOS>MOLECULE
2SS
   70    64     1     0     0
SMALL
bcc


@<TRIPOS>ATOM
      1 C1         -3.5380   -1.9070   -2.9770 c1        1 2SS     -0.154750
      2 C2         -4.3680   -2.5030   -2.0170 c1        1 2SS     -0.154750
      3 C3         -2.8070   -0.7370   -2.6560 c1        1 2SS     -0.154750
      4 C4         -4.4740   -1.9410   -0.7370 c1        1 2SS     -0.154750
      5 C5         -0.2460   -1.9570    2.5150 c1        1 2SS     -0.154750
      6 C6          1.1270   -1.7340    2.2710 c1        1 2SS     -0.154750
      7 C7         -2.9140   -0.1720   -1.3710 c1        1 2SS     -0.114000
      8 C8         -0.5960    0.5030    2.8390 c1        1 2SS     -0.060000
      9 C9         -3.7450   -0.7710   -0.4100 c1        1 2SS     -0.011000
     10 C10        -1.1250   -0.8390    2.8030 c1        1 2SS     -0.123000
     11 C11         1.6520   -0.4130    2.3060 c1        1 2SS      0.012000
     12 C12         0.7600    0.7250    2.5980 c1        1 2SS      0.026000
     13 C13        -1.7910   -4.8300    1.3760 c1        1 2SS     -0.154750
     14 C14        -2.5660   -3.8140    1.8590 c1        1 2SS     -0.154750
     15 C15        -2.1560    1.1900   -1.2860 c2        1 2SS      0.338000
     16 C16        -1.1190    1.6680    3.6540 c2        1 2SS      0.373000
     17 C17         7.2680    2.0980    1.3960 c1        1 2SS      0.328000
     18 C18         1.5570    1.2140   -5.4110 cy        1 2SS     -0.180000
     19 C19         1.8670    1.7200   -4.0360 cy        1 2SS     -0.170500
     20 C20         0.1050    1.4630   -5.1730 cy        1 2SS     -0.170500
     21 C21         2.5000    2.2250    1.8290 c3        1 2SS     -0.056000
     22 C22         0.4180    1.9950   -3.8130 cy        1 2SS     -0.120000
     23 C23         3.4890    1.1730    2.1610 c3        1 2SS     -0.008000
     24 C24        -3.6650   -0.3320    1.1070 c3        1 2SS     -0.075000
     25 C25        -2.5850   -1.0920    3.1740 c3        1 2SS     -0.029000
     26 C26        -2.5260   -2.4720    1.2060 c2        1 2SS     -0.060000
     27 C27         6.0920    1.2960    2.1050 c2        1 2SS     -0.222000
     28 C28        -0.1440    1.1980   -2.7680 c3        1 2SS     -0.042000
     29 C29         4.7700    1.4080    1.2300 c3        1 2SS     -0.141000
     30 N30        -1.4760    1.6900   -2.4400 n         1 2SS     -0.331000
     31 N31        -3.3350   -1.5340    1.9680 n3        1 2SS     -0.259000
     32 O32        -1.6400    2.6520    3.0790 o         1 2SS     -0.573500
     33 O33         8.0980    1.4790    0.6250 o         1 2SS     -0.591000
     34 O34        -2.3430    1.9230   -0.3330 o         1 2SS     -0.371000
     35 O35        -0.9970    1.6620    4.9430 o         1 2SS     -0.573500
     36 O36         7.3870    3.3580    1.5800 o         1 2SS     -0.591000
     37 O37         1.3270    2.1330    2.3940 os        1 2SS     -0.180000
     38 O38         3.0910   -0.1020    2.0020 os        1 2SS     -0.217000
     39 H1         -3.4650   -2.3030   -3.8750 ha        1 2SS      0.118875
     40 H2         -4.8460   -3.3950   -2.2300 ha        1 2SS      0.118875
     41 H3         -2.1960   -0.3180   -3.3430 ha        1 2SS      0.118875
     42 H4         -5.0840   -2.3800   -0.0350 ha        1 2SS      0.118875
     43 H5         -0.6000   -2.8620    2.4910 ha        1 2SS      0.118875
     44 H6          1.7210   -2.4930    2.0770 ha        1 2SS      0.118875
     45 H241       -4.4890    0.0240    1.3740 h1        1 2SS      0.139000
     46 H242       -2.9810    0.3340    1.2100 h1        1 2SS      0.139000
     47 H251       -3.0020   -0.2280    3.5340 h1        1 2SS      0.105500
     48 H252       -2.6330   -1.8310    3.9040 h1        1 2SS      0.105500
     49 H131       -1.2310   -4.6830    0.6290 DU        1 2SS      0.103000
     50 H132       -1.8170   -5.6830    1.7880 ha        1 2SS      0.118875
     51 H14        -3.1570   -3.9700    2.6500 ha        1 2SS      0.118875
     52 H261       -2.8760   -2.5420    0.3040 h4        1 2SS      0.089000
     53 H262       -1.6290   -2.1640    1.1740 h4        1 2SS      0.089000
     54 H30        -1.9240    2.2940   -3.0340 hn        1 2SS      0.266000
     55 H271        6.3460    0.3630    2.1930 ha        1 2SS      0.062000
     56 H272        5.9330    1.6610    2.9660 ha        1 2SS      0.062000
     57 H181        1.7530    0.3120   -5.5130 hc        1 2SS      0.073500
     58 H182        1.9260    1.7710   -6.1100 hc        1 2SS      0.073500
     59 H191        2.2120    1.0240   -3.4510 hc        1 2SS      0.085750
     60 H192        2.3910    2.5060   -4.0410 hc        1 2SS      0.085750
     61 H201       -0.4190    0.6360   -5.1460 hc        1 2SS      0.085750
     62 H202       -0.2730    2.1570   -5.7700 hc        1 2SS      0.085750
     63 H22         0.2250    2.9330   -3.7310 hc        1 2SS      0.102000
     64 H211        2.8990    3.1130    2.0880 h1        1 2SS      0.104500
     65 H212        2.3710    2.2240    0.8770 h1        1 2SS      0.104500
     66 H23         3.7700    1.2980    3.1260 h1        1 2SS      0.092000
     67 H281       -0.2120    0.2230   -3.0820 h1        1 2SS      0.112000
     68 H282        0.4300    1.2500   -1.9720 h1        1 2SS      0.112000
     69 H291        4.7890    0.7570    0.5480 hc        1 2SS      0.098000
     70 H292        4.7160    2.3460    0.8070 hc        1 2SS      0.098000
@<TRIPOS>BOND
     1    1    3 1   
     2    1   39 1   
     3    2    4 1   
     4    2   40 1   
     5    3   41 1   
     6    4   42 1   
     7    5    6 1   
     8    5   43 1   
     9    6   44 1   
    10    7    9 1   
    11    7   15 1   
    12    8   10 1   
    13    8   16 1   
    14    9   24 1   
    15   10   25 1   
    16   11   12 1   
    17   11   38 1   
    18   12   37 1   
    19   13   14 1   
    20   13   50 1   
    21   14   51 1   
    22   15   30 1   
    23   15   34 1   
    24   16   32 1   
    25   16   35 1   
    26   17   33 1   
    27   17   36 1   
    28   18   19 1   
    29   18   20 1   
    30   18   57 1   
    31   18   58 1   
    32   19   22 1   
    33   19   59 1   
    34   19   60 1   
    35   20   22 1   
    36   20   61 1   
    37   20   62 1   
    38   21   23 1   
    39   21   37 1   
    40   21   64 1   
    41   21   65 1   
    42   22   28 1   
    43   22   63 1   
    44   23   29 1   
    45   23   38 1   
    46   23   66 1   
    47   24   31 1   
    48   24   45 1   
    49   24   46 1   
    50   25   31 1   
    51   25   47 1   
    52   25   48 1   
    53   26   31 1   
    54   26   52 1   
    55   26   53 1   
    56   27   29 1   
    57   27   55 1   
    58   27   56 1   
    59   28   30 1   
    60   28   67 1   
    61   28   68 1   
    62   29   69 1   
    63   29   70 1   
    64   30   54 1   
@<TRIPOS>SUBSTRUCTURE
     1 2SS         1 TEMP              0 ****  ****    0 ROOT
