@<TRIPOS>MOLECULE
2SS
   70    67     1     0     0
SMALL
bcc


@<TRIPOS>ATOM
      1 C1        202.6450 -119.9230 -214.6050 c2        1 2SS     -0.564000
      2 C2        203.8600 -119.5790 -214.2340 c1        1 2SS      0.296000
      3 C3        201.9230 -119.4070 -215.7120 c1        1 2SS      0.027000
      4 C4        200.0030 -117.9690 -217.3510 c2        1 2SS     -0.165000
      5 C5        196.3870 -121.0200 -214.3000 ca        1 2SS     -0.131000
      6 C6        195.7800 -122.2580 -214.4980 ca        1 2SS     -0.150000
      7 C7        200.5600 -119.9480 -215.9500 c3        1 2SS     -0.176000
      8 C8        198.4130 -122.0760 -213.4470 ca        1 2SS     -0.029000
      9 C9        199.6560 -118.8490 -216.4090 c2        1 2SS     -0.090000
     10 C10       197.6810 -120.9120 -213.7700 ca        1 2SS      0.004000
     11 C11       196.4900 -123.4130 -214.1600 ca        1 2SS      0.020000
     12 C12       197.7950 -123.3090 -213.6520 ca        1 2SS     -0.096000
     13 C14       203.1430 -122.2580 -211.3750 c1        1 2SS     -0.242500
     14 C15       200.6290 -121.1120 -216.9530 c2        1 2SS      0.323000
     15 C17      -881.1940  531.0040  972.6030 c2        1 2SS      0.333000
     16 C18       200.0720 -126.8480 -215.8370 c3        1 2SS     -0.271000
     17 C19      -877.6360  532.0900  972.4710 c2        1 2SS     -0.320000
     18 C20       200.8690 -125.8020 -216.4480 c1        1 2SS     -0.077000
     19 C21       197.9150 -125.6340 -213.3680 c1        1 2SS     -0.014000
     20 C22       200.5260 -124.4160 -216.2230 c3        1 2SS     -0.265000
     21 C23       196.4710 -125.7460 -213.7190 c3        1 2SS     -0.132000
     22 C24       198.3050 -118.7940 -215.7480 c3        1 2SS     -0.055000
     23 C25       198.2380 -119.6120 -213.4470 c2        1 2SS     -0.350000
     24 C26       198.6630 -117.3350 -213.8750 c2        1 2SS     -0.431000
     25 C28       201.3150 -123.4710 -217.1380 c3        1 2SS     -0.021000
     26 C29      -878.9430  532.0380  972.2130 c2        1 2SS     -0.082000
     27 N30       201.4860 -122.1450 -216.5980 n         1 2SS     -0.342000
     28 N31       198.3830 -118.5730 -214.2900 n3        1 2SS      0.158000
     29 O32       200.7850 -122.2300 -213.7230 o         1 2SS     -0.567000
     30 O33      -881.7550  530.1250  973.3170 o         1 2SS     -0.582500
     31 O34       199.9850 -121.1080 -218.0200 o         1 2SS     -0.382000
     32 O35       200.0240 -121.6220 -211.7290 o         1 2SS     -0.567000
     33 O36      -881.5760  531.3250  971.4420 o         1 2SS     -0.582500
     34 O37       198.5140 -124.4950 -213.3450 os        1 2SS     -0.000000
     35 O38       195.8690 -124.6320 -214.3910 os        1 2SS     -0.220000
     36 H1        202.1500 -120.7030 -213.9350 ha        1 2SS      0.267000
     37 H2        200.9780 -118.0300 -217.8540 ha        1 2SS      0.119000
     38 H3        200.1250 -120.4190 -215.0040 hc        1 2SS      0.155000
     39 H4        199.3440 -117.1530 -217.6720 ha        1 2SS      0.119000
     40 H5        195.8260 -120.1060 -214.5470 ha        1 2SS      0.126000
     41 H6        194.7650 -122.3370 -214.9100 ha        1 2SS      0.138000
     42 H241      197.6900 -117.9600 -216.1910 h1        1 2SS      0.117000
     43 H242      197.7750 -119.7710 -215.9440 h1        1 2SS      0.117000
     44 H251      193.7030 -120.3760 -215.3080 ha        1 2SS      0.000000
     45 H252      193.1350 -120.0870 -215.5350 ha        1 2SS     -0.000000
     46 H131      205.2500 -122.4840 -210.6050 ha        1 2SS      0.237500
     47 H132      202.1340 -122.1530 -211.7410 ha        1 2SS      0.237500
     48 H14       198.5840 -119.4780 -212.4070 h4        1 2SS      0.189000
     49 H261      198.8940 -116.5570 -214.6070 h4        1 2SS      0.140000
     50 H262      198.7270 -117.1230 -212.8050 h4        1 2SS      0.140000
     51 H30       201.7790 -122.1400 -215.6360 hn        1 2SS      0.246000
     52 H271     -880.3780  532.7160  973.6250 hc        1 2SS      0.074000
     53 H272     -879.5810  531.1510  974.0700 hc        1 2SS      0.074000
     54 H181      200.7540 -124.1820 -215.1290 hc        1 2SS      0.144500
     55 H182     -876.8910  532.3050  971.6950 ha        1 2SS      0.084500
     56 H191     -877.2200  531.9090  973.4690 ha        1 2SS      0.084500
     57 H192      199.7090 -127.5310 -216.6490 hc        1 2SS      0.098000
     58 H201      200.7530 -127.4460 -215.1730 hc        1 2SS      0.098000
     59 H202      199.1930 -126.5130 -215.2240 hc        1 2SS      0.098000
     60 H22       199.4220 -124.2180 -216.3330 hc        1 2SS      0.144500
     61 H211     -874.9180  530.2400  972.5330 ha        1 2SS      0.000000
     62 H212     -875.5210  530.5500  972.5210 ha        1 2SS     -0.000000
     63 H23       196.3270 -126.6050 -214.4310 h1        1 2SS      0.120500
     64 H281      202.3450 -123.9010 -217.2970 h1        1 2SS      0.100500
     65 H282      200.8010 -123.4030 -218.1370 h1        1 2SS      0.100500
     66 H291      195.8870 -125.9400 -212.7770 h1        1 2SS      0.120500
     67 H292     -879.3390  532.2090  971.1940 ha        1 2SS      0.139000
     68 C13       204.2610 -122.3790 -210.9640 c1        1 2SS     -0.242500
     69 C27      -879.9870  531.7470  973.2150 c3        1 2SS     -0.221000
     70 C16       199.8310 -121.9720 -212.9210 c2        1 2SS      0.379000
@<TRIPOS>BOND
     1    1    2 1   
     2    1    3 1   
     3    1   36 1   
     4    3    7 1   
     5    4    9 1   
     6    4   37 1   
     7    4   39 1   
     8    5    6 1   
     9    5   10 1   
    10    5   40 1   
    11    6   11 1   
    12    6   41 1   
    13    7    9 1   
    14    7   14 1   
    15    7   38 1   
    16    8   10 1   
    17    8   12 1   
    18    8   70 1   
    19    9   22 1   
    20   10   23 1   
    21   11   12 1   
    22   11   35 1   
    23   12   34 1   
    24   13   47 1   
    25   13   68 1   
    26   14   27 1   
    27   14   31 1   
    28   15   30 1   
    29   15   33 1   
    30   15   69 1   
    31   16   18 1   
    32   16   57 1   
    33   16   58 1   
    34   16   59 1   
    35   17   26 1   
    36   17   55 1   
    37   17   56 1   
    38   18   20 1   
    39   19   21 1   
    40   19   34 1   
    41   20   25 1   
    42   20   54 1   
    43   20   60 1   
    44   21   35 1   
    45   21   63 1   
    46   21   66 1   
    47   22   28 1   
    48   22   42 1   
    49   22   43 1   
    50   23   28 1   
    51   23   48 1   
    52   24   28 1   
    53   24   49 1   
    54   24   50 1   
    55   25   27 1   
    56   25   64 1   
    57   25   65 1   
    58   26   67 1   
    59   26   69 1   
    60   27   51 1   
    61   29   70 1   
    62   32   70 1   
    63   44   45 1   
    64   46   68 1   
    65   52   69 1   
    66   53   69 1   
    67   61   62 1   
@<TRIPOS>SUBSTRUCTURE
     1 2SS         1 TEMP              0 ****  ****    0 ROOT
