@<TRIPOS>MOLECULE
2SS
   70    73     1     0     0
SMALL
bcc


@<TRIPOS>ATOM
      1 C1         -5.6670    3.3680   -0.9200 ca        1 2SS     -0.151000
      2 C2         -6.2630    2.1590   -1.2840 ca        1 2SS     -0.137000
      3 C3         -4.2880    3.4340   -0.7560 ca        1 2SS     -0.097000
      4 C4         -5.4750    1.0280   -1.4690 ca        1 2SS     -0.141000
      5 C5         -0.2700   -1.9810   -2.0890 ca        1 2SS     -0.147000
      6 C6          1.0980   -1.8200   -2.2750 ca        1 2SS     -0.159000
      7 C7         -3.4900    2.2950   -0.9400 ca        1 2SS     -0.091600
      8 C8         -0.0500   -1.5710    0.3050 ca        1 2SS     -0.080600
      9 C9         -4.0830    1.0790   -1.2930 ca        1 2SS     -0.040300
     10 C10        -0.8370   -1.8810   -0.8150 ca        1 2SS     -0.098300
     11 C11         1.9050   -1.5450   -1.1630 ca        1 2SS      0.057100
     12 C12         1.3320   -1.4040    0.1170 ca        1 2SS      0.062100
     13 C14        -4.2240   -2.0770    1.6050 c2        1 2SS     -0.135200
     14 C15        -2.0060    2.5020   -0.8170 c         1 2SS      0.651700
     15 C17         7.9130   -1.0270   -0.0230 c         1 2SS      0.908600
     16 C18         1.7940    4.7580    1.1310 cy        1 2SS     -0.099400
     17 C19         1.9560    3.2880    1.5690 cy        1 2SS     -0.094400
     18 C20         0.2760    4.5430    0.9630 cy        1 2SS     -0.094400
     19 C21         3.4230   -0.6520    0.9010 c3        1 2SS      0.093400
     20 C22         0.4300    3.0710    1.4170 cy        1 2SS     -0.085700
     21 C23         4.0670   -1.4780   -0.2070 c3        1 2SS      0.103100
     22 C24        -3.2860   -0.1730   -1.5290 c3        1 2SS      0.208100
     23 C25        -2.2950   -2.1860   -0.6260 c3        1 2SS      0.215100
     24 C26        -4.3790   -1.3510    0.3030 c3        1 2SS      0.202000
     25 C28         0.0820    2.0190    0.3750 c3        1 2SS      0.092000
     26 C29         5.4560   -0.9800   -0.5850 c3        1 2SS     -0.061400
     27 N30        -1.3310    1.8390    0.1600 n         1 2SS     -0.515900
     28 N31        -3.1250   -1.0160   -0.3540 n3        1 2SS     -0.713600
     29 O32        -0.9130   -0.2660    2.1200 o         1 2SS     -0.834300
     30 O33         8.8670   -1.8430   -0.1840 o         1 2SS     -0.855800
     31 O34        -1.4560    3.3300   -1.5880 o         1 2SS     -0.668100
     32 O35        -1.1030   -2.4820    2.2520 o         1 2SS     -0.834300
     33 O36         8.0530    0.2290   -0.0780 o         1 2SS     -0.855800
     34 O37         2.1190   -1.1430    1.2280 os        1 2SS     -0.300900
     35 O38         3.2600   -1.3920   -1.4020 os        1 2SS     -0.331900
     36 H1         -6.2840    4.2640   -0.7680 ha        1 2SS      0.117000
     37 H2         -7.3510    2.1000   -1.4200 ha        1 2SS      0.114000
     38 H3         -3.8020    4.3870   -0.4920 ha        1 2SS      0.142000
     39 H4         -5.9430    0.0720   -1.7500 ha        1 2SS      0.126000
     40 H5         -0.9100   -2.2000   -2.9560 ha        1 2SS      0.106000
     41 H6          1.5560   -1.9040   -3.2680 ha        1 2SS      0.128000
     42 H241       -3.7820   -0.7370   -2.3800 h1        1 2SS      0.042700
     43 H242       -2.2450    0.1010   -1.8720 h1        1 2SS      0.042700
     44 H251       -2.6760   -2.7440   -1.5350 h1        1 2SS      0.047700
     45 H252       -2.3680   -2.8790    0.2680 h1        1 2SS      0.047700
     46 H131       -5.1210   -3.2940    3.0970 ha        1 2SS      0.091000
     47 H132       -6.1930   -2.9160    1.6370 ha        1 2SS      0.091000
     48 H14        -3.2390   -1.9680    2.1170 ha        1 2SS      0.216000
     49 H261       -5.0580   -1.9460   -0.3830 h1        1 2SS      0.020700
     50 H262       -4.9080   -0.3780    0.5320 h1        1 2SS      0.020700
     51 H30        -1.7650    1.1150    0.7080 hn        1 2SS      0.378500
     52 H271        6.5430   -2.7140    0.1340 hc        1 2SS      0.022700
     53 H272        6.2970   -1.4070    1.3630 hc        1 2SS      0.022700
     54 H181        2.0650    5.4960    1.9150 hc        1 2SS      0.033200
     55 H182        2.3230    5.0090    0.1880 hc        1 2SS      0.033200
     56 H191        2.5710    2.6720    0.8790 hc        1 2SS      0.050200
     57 H192        2.3240    3.1590    2.6080 hc        1 2SS      0.050200
     58 H201       -0.3460    5.1620    1.6420 hc        1 2SS      0.050200
     59 H202       -0.0880    4.6460   -0.0830 hc        1 2SS      0.050200
     60 H22        -0.0780    2.8490    2.3840 hc        1 2SS      0.071700
     61 H211        3.9980   -0.7450    1.8580 h1        1 2SS      0.064200
     62 H212        3.3410    0.4240    0.5960 h1        1 2SS      0.064200
     63 H23         4.0970   -2.5610    0.1000 h1        1 2SS      0.053700
     64 H281        0.5760    2.2930   -0.6010 h1        1 2SS      0.079200
     65 H282        0.4890    1.0240    0.7390 h1        1 2SS      0.079200
     66 H291        5.6490   -1.2340   -1.6600 hc        1 2SS      0.059700
     67 H292        5.5080    0.1360   -0.4920 hc        1 2SS      0.059700
     68 C13        -5.2210   -2.7870    2.1290 c2        1 2SS     -0.282000
     69 C27         6.5210   -1.6050    0.2840 c3        1 2SS     -0.193400
     70 C16        -0.7180   -1.4300    1.6660 c         1 2SS      0.935200
@<TRIPOS>BOND
     1    1    2 ar  
     2    1    3 ar  
     3    1   36 1   
     4    2    4 ar  
     5    2   37 1   
     6    3    7 ar  
     7    3   38 1   
     8    4    9 ar  
     9    4   39 1   
    10    5    6 ar  
    11    5   10 ar  
    12    5   40 1   
    13    6   11 ar  
    14    6   41 1   
    15    7    9 ar  
    16    7   14 1   
    17    8   10 ar  
    18    8   12 ar  
    19    8   70 1   
    20    9   22 1   
    21   10   23 1   
    22   11   12 ar  
    23   11   35 1   
    24   12   34 1   
    25   13   24 1   
    26   13   48 1   
    27   13   68 2   
    28   14   27 1   
    29   14   31 2   
    30   15   30 1   
    31   15   33 1   
    32   15   69 1   
    33   16   17 1   
    34   16   18 1   
    35   16   54 1   
    36   16   55 1   
    37   17   20 1   
    38   17   56 1   
    39   17   57 1   
    40   18   20 1   
    41   18   58 1   
    42   18   59 1   
    43   19   21 1   
    44   19   34 1   
    45   19   61 1   
    46   19   62 1   
    47   20   25 1   
    48   20   60 1   
    49   21   26 1   
    50   21   35 1   
    51   21   63 1   
    52   22   28 1   
    53   22   42 1   
    54   22   43 1   
    55   23   28 1   
    56   23   44 1   
    57   23   45 1   
    58   24   28 1   
    59   24   49 1   
    60   24   50 1   
    61   25   27 1   
    62   25   64 1   
    63   25   65 1   
    64   26   66 1   
    65   26   67 1   
    66   26   69 1   
    67   27   51 1   
    68   29   70 1   
    69   32   70 1   
    70   46   68 1   
    71   47   68 1   
    72   52   69 1   
    73   53   69 1   
@<TRIPOS>SUBSTRUCTURE
     1 2SS         1 TEMP              0 ****  ****    0 ROOT
