@<TRIPOS>MOLECULE
2ST
   38    39     1     0     0
SMALL
bcc


@<TRIPOS>ATOM
      1 OP3        13.4890   16.0000    5.8860 o         1 2ST     -0.841000
      2 P          14.0340   17.1300    5.1010 p5        1 2ST      1.430800
      3 OP1        14.9260   17.0380    3.9310 o         1 2ST     -0.841000
      4 OP2        14.7140   18.0500    6.2730 oh        1 2ST     -0.786400
      5 O5'        12.7770   18.1250    4.7040 os        1 2ST     -0.578200
      6 N1          8.2640   20.2330    6.6350 n         1 2ST     -0.321400
      7 C6          8.8650   21.4650    6.5470 c1        1 2ST     -0.112900
      8 C2          7.3980   19.8940    7.7080 c         1 2ST      0.727100
      9 O2          6.7560   18.8110    7.7790 o         1 2ST     -0.696100
     10 N3          7.2090   20.8520    8.7160 n         1 2ST     -0.595500
     11 C4          7.8170   22.1310    8.6840 c         1 2ST      0.677300
     12 O4          7.5600   22.8900    9.6540 o         1 2ST     -0.716100
     13 C5          8.6440   22.4140    7.5310 ce        1 2ST     -0.492500
     14 C5A         9.2620   23.7480    7.4410 c3        1 2ST      0.042100
     15 C2'         9.1490   19.7250    4.3210 c3        1 2ST     -0.061600
     16 C5'        11.8070   18.3560    5.6780 c3        1 2ST      0.183400
     17 C4'        10.4360   17.8790    5.1810 c3        1 2ST      0.086100
     18 O4'         9.4300   18.1950    6.1550 os        1 2ST     -0.432600
     19 C1'         8.5240   19.2080    5.6420 c3        1 2ST      0.333500
     20 C3'        10.0270   18.5550    3.8540 c3        1 2ST      0.136100
     21 SE          7.9530   20.2560    3.1290 ss        1 2ST     -0.311200
     22 CA'         7.7360   21.9540    3.5330 c3        1 2ST     -0.053000
     23 O3'         9.3590   17.6440    3.0030 oh        1 2ST     -0.595800
     24 H6         14.4360   17.7760    7.1390 ho        1 2ST      0.422000
     25 HN3         6.6280   20.6010    9.4800 hn        1 2ST      0.303500
     26 H5A1        9.9530   23.8010    6.5650 hc        1 2ST      0.001367
     27 H5A2        8.4820   24.5440    7.3270 hc        1 2ST      0.001367
     28 H5A3        9.8410   23.9800    8.3710 hc        1 2ST      0.001367
     29 H2'         9.8270   20.5920    4.5640 h1        1 2ST      0.143700
     30 H5'        11.7520   19.4630    5.8800 h1        1 2ST      0.038200
     31 H5''       12.0620   17.8090    6.6270 h1        1 2ST      0.038200
     32 H4'        10.4280   16.7600    5.0820 h1        1 2ST      0.076700
     33 H1'         7.5510   18.6600    5.4470 h2        1 2ST      0.066700
     34 H3'        10.9270   18.8910    3.2710 h1        1 2ST      0.123700
     35 HA'1        6.6460   22.1630    3.5980 h1        1 2ST      0.068700
     36 HA'2        8.2170   22.2100    4.5140 h1        1 2ST      0.068700
     37 HA'3        8.1820   22.5870    2.7340 h1        1 2ST      0.068700
     38 HO3'        8.6060   17.2980    3.4980 ho        1 2ST      0.391000
@<TRIPOS>BOND
     1    1    2 1   
     2    2    3 1   
     3    2    4 1   
     4    2    5 1   
     5    4   24 1   
     6    5   16 1   
     7    6    7 2   
     8    6    8 1   
     9    6   19 1   
    10    7   13 2   
    11    8    9 2   
    12    8   10 1   
    13   10   11 1   
    14   10   25 1   
    15   11   12 2   
    16   11   13 1   
    17   13   14 1   
    18   14   26 1   
    19   14   27 1   
    20   14   28 1   
    21   15   19 1   
    22   15   20 1   
    23   15   21 1   
    24   15   29 1   
    25   16   17 1   
    26   16   30 1   
    27   16   31 1   
    28   17   18 1   
    29   17   20 1   
    30   17   32 1   
    31   18   19 1   
    32   19   33 1   
    33   20   23 1   
    34   20   34 1   
    35   21   22 1   
    36   22   35 1   
    37   22   36 1   
    38   22   37 1   
    39   23   38 1   
@<TRIPOS>SUBSTRUCTURE
     1 2ST         1 TEMP              0 ****  ****    0 ROOT
