@<TRIPOS>MOLECULE
2ST
   38    39     1     0     0
SMALL
bcc


@<TRIPOS>ATOM
      1 OP3        -2.3400   -4.1480   -0.2730 o         1 2ST     -0.916833
      2 P          -0.8360   -4.2750   -0.4010 p5        1 2ST      1.327900
      3 OP1        -0.2160   -4.3430    0.9770 o         1 2ST     -0.916833
      4 OP2        -0.5000   -5.5350   -1.1670 o         1 2ST     -0.916833
      5 O5'        -0.2620   -3.0140   -1.1750 os        1 2ST     -0.573200
      6 N1         -0.2690    1.0560    0.7310 n         1 2ST     -0.366000
      7 C6         -1.3530    0.7770    1.6040 cc        1 2ST      0.082600
      8 C2          1.0870    1.2350    1.2780 c         1 2ST      0.789500
      9 O2          1.9910    1.5970    0.5480 o         1 2ST     -0.730500
     10 N3          1.3200    1.1100    2.7240 n         1 2ST     -0.595500
     11 C4          0.2240    0.9380    3.6070 c         1 2ST      0.715700
     12 O4          0.4160    0.8650    4.8120 o         1 2ST     -0.695500
     13 C5         -1.1360    0.7590    3.0650 cd        1 2ST     -0.300400
     14 C5A        -2.3220    0.6470    4.0100 c3        1 2ST     -0.040900
     15 C2'         0.7270    0.9490   -1.5210 c3        1 2ST     -0.024600
     16 C5'        -0.4800   -1.7110   -0.6150 c3        1 2ST      0.225400
     17 C4'        -0.7890   -0.7420   -1.7090 c3        1 2ST      0.069100
     18 O4'        -1.4910    0.5920   -1.0960 os        1 2ST     -0.412600
     19 C1'        -0.5210    1.3370   -0.6520 c3        1 2ST      0.307500
     20 C3'         0.3230   -0.3410   -2.2840 c3        1 2ST      0.130100
     21 SE          1.1230    2.2850   -2.6970 ss        1 2ST     -0.286200
     22 CA'         3.0280    2.2930   -3.0480 c3        1 2ST     -0.060000
     23 O3'         0.0820   -0.0360   -3.7150 oh        1 2ST     -0.634800
     24 H6         -2.2500    0.6580    1.2440 h4        1 2ST      0.319000
     25 HN3         2.1700    1.2230    3.0630 hn        1 2ST      0.317500
     26 H5A1       -2.1660   -0.0880    4.6470 hc        1 2ST      0.056367
     27 H5A2       -3.1310    0.4650    3.4960 hc        1 2ST      0.056367
     28 H5A3       -2.4290    1.4900    4.5020 hc        1 2ST      0.056367
     29 H2'         1.4900    0.7730   -0.9470 h1        1 2ST      0.088700
     30 H5'         0.3240   -1.4210   -0.1420 h1        1 2ST      0.005700
     31 H5''       -1.2300   -1.7470    0.0110 h1        1 2ST      0.005700
     32 H4'        -1.3810   -1.1590   -2.3730 h1        1 2ST      0.026700
     33 H1'        -0.7380    2.2870   -0.7730 h2        1 2ST      0.092700
     34 H3'         1.0160   -1.0190   -2.1920 h1        1 2ST      0.153700
     35 HA'1        3.2840    3.1560   -3.4560 h1        1 2ST      0.055700
     36 HA'2        3.5170    2.1720   -2.2050 h1        1 2ST      0.055700
     37 HA'3        3.2500    1.5650   -3.6610 h1        1 2ST      0.055700
     38 HO3'        0.4700   -0.6510   -4.2160 ho        1 2ST      0.477000
@<TRIPOS>BOND
     1    1    2 1   
     2    2    3 1   
     3    2    4 1   
     4    2    5 1   
     5    5   16 1   
     6    6    7 1   
     7    6    8 1   
     8    6   19 1   
     9    7   13 2   
    10    7   24 1   
    11    8    9 2   
    12    8   10 1   
    13   10   11 1   
    14   10   25 1   
    15   11   12 2   
    16   11   13 1   
    17   13   14 1   
    18   14   26 1   
    19   14   27 1   
    20   14   28 1   
    21   15   19 1   
    22   15   20 1   
    23   15   21 1   
    24   15   29 1   
    25   16   17 1   
    26   16   30 1   
    27   16   31 1   
    28   17   18 1   
    29   17   20 1   
    30   17   32 1   
    31   18   19 1   
    32   19   33 1   
    33   20   23 1   
    34   20   34 1   
    35   21   22 1   
    36   22   35 1   
    37   22   36 1   
    38   22   37 1   
    39   23   38 1   
@<TRIPOS>SUBSTRUCTURE
     1 2ST         1 TEMP              0 ****  ****    0 ROOT
