@<TRIPOS>MOLECULE
2SU
   30    31     1     0     0
SMALL
bcc


@<TRIPOS>ATOM
      1 F01        -0.4890   -0.3370    0.5380 f         1 2SU     -0.216300
      2 O02         1.1750   -1.2060    3.4090 o         1 2SU     -0.746800
      3 O03         2.8020   -2.0950    2.0960 o         1 2SU     -0.746800
      4 N04         3.0430    4.4050    1.2740 na        1 2SU     -0.188400
      5 N05         3.1640    0.1760    0.7800 nz        1 2SU     -0.822600
      6 C06         1.7880   -0.0270    1.3550 c3        1 2SU     -0.096800
      7 C07         1.2880    1.2300    2.0670 c3        1 2SU     -0.022200
      8 C08         1.8060    2.4880    1.5090 cc        1 2SU     -0.178400
      9 C09         1.3760    3.1510    0.2930 ca        1 2SU     -0.103800
     10 C10         0.8390   -0.5310    0.2350 c3        1 2SU      0.172900
     11 C11         2.1610    4.3600    0.1870 ca        1 2SU     -0.053200
     12 C12         2.7870    3.2980    2.0870 cd        1 2SU     -0.117100
     13 C13         1.9240   -1.2570    2.4260 c         1 2SU      0.939600
     14 C14         0.4170    2.8670   -0.6810 ca        1 2SU     -0.092000
     15 C15         1.9880    5.2420   -0.8910 ca        1 2SU     -0.142000
     16 C16         0.2540    3.7500   -1.7380 ca        1 2SU     -0.150000
     17 C17         1.0320    4.9180   -1.8410 ca        1 2SU     -0.108000
     18 H2          3.5430    5.2080    1.5540 hn        1 2SU      0.301700
     19 H3          3.1240    0.5510   -0.1640 hn        1 2SU      0.446800
     20 H4          3.6250   -0.7560    0.7930 hn        1 2SU      0.446800
     21 H6          0.1630    1.2240    2.0280 hc        1 2SU      0.099700
     22 H7          1.5650    1.1460    3.1560 hc        1 2SU      0.099700
     23 H8          1.0470    0.0050   -0.7370 h1        1 2SU      0.048200
     24 H9          1.0190   -1.6350    0.0940 h1        1 2SU      0.048200
     25 H10         3.3230    3.1630    3.0300 h4        1 2SU      0.174000
     26 H11        -0.2060    1.9630   -0.5900 ha        1 2SU      0.147000
     27 H12         2.5850    6.1600   -0.9740 ha        1 2SU      0.137000
     28 H13        -0.5020    3.5440   -2.5100 ha        1 2SU      0.137000
     29 H14         0.8690    5.5940   -2.6950 ha        1 2SU      0.136000
     30 H053        3.6760    0.8220    1.3810 hn        1 2SU      0.446800
@<TRIPOS>BOND
     1    1   10 1   
     2    2   13 1   
     3    3   13 1   
     4    4   11 1   
     5    4   12 1   
     6    4   18 1   
     7    5    6 1   
     8    5   19 1   
     9    5   20 1   
    10    5   30 1   
    11    6    7 1   
    12    6   10 1   
    13    6   13 1   
    14    7    8 1   
    15    7   21 1   
    16    7   22 1   
    17    8    9 1   
    18    8   12 2   
    19    9   11 ar  
    20    9   14 ar  
    21   10   23 1   
    22   10   24 1   
    23   11   15 ar  
    24   12   25 1   
    25   14   16 ar  
    26   14   26 1   
    27   15   17 ar  
    28   15   27 1   
    29   16   17 ar  
    30   16   28 1   
    31   17   29 1   
@<TRIPOS>SUBSTRUCTURE
     1 2SU         1 TEMP              0 ****  ****    0 ROOT
