@<TRIPOS>MOLECULE
2SU
   30    31     1     0     0
SMALL
bcc


@<TRIPOS>ATOM
      1 F01        -0.4940   -0.3330    0.5690 f         1 2SU     -0.215300
      2 O02         1.2050   -1.2010    3.4200 o         1 2SU     -0.746800
      3 O03         2.8130   -2.0950    2.0880 o         1 2SU     -0.746800
      4 N04         3.0570    4.4030    1.2520 na        1 2SU     -0.188400
      5 N05         3.1630    0.1730    0.7640 n4        1 2SU     -0.822600
      6 C06         1.7940   -0.0260    1.3560 c3        1 2SU     -0.096800
      7 C07         1.3060    1.2330    2.0730 c3        1 2SU     -0.022200
      8 C08         1.8190    2.4890    1.5070 cc        1 2SU     -0.177400
      9 C09         1.3750    3.1510    0.2960 ca        1 2SU     -0.103800
     10 C10         0.8300   -0.5290    0.2500 c3        1 2SU      0.172900
     11 C11         2.1610    4.3580    0.1770 ca        1 2SU     -0.053200
     12 C12         2.8100    3.2980    2.0700 cd        1 2SU     -0.117100
     13 C13         1.9410   -1.2550    2.4270 c         1 2SU      0.939600
     14 C14         0.4020    2.8680   -0.6650 ca        1 2SU     -0.092000
     15 C15         1.9750    5.2400   -0.9000 ca        1 2SU     -0.142000
     16 C16         0.2270    3.7500   -1.7210 ca        1 2SU     -0.150000
     17 C17         1.0060    4.9160   -1.8360 ca        1 2SU     -0.108000
     18 H2          3.5630    5.2050    1.5240 hn        1 2SU      0.301700
     19 H3          3.6230   -0.7600    0.7730 hn        1 2SU      0.446800
     20 H4          3.6850    0.8190    1.3570 hn        1 2SU      0.446800
     21 H6          1.5970    1.1500    3.1580 hc        1 2SU      0.099700
     22 H7          0.1810    1.2290    2.0490 hc        1 2SU      0.099700
     23 H8          1.0270    0.0050   -0.7260 h1        1 2SU      0.048200
     24 H9          1.0070   -1.6350    0.1070 h1        1 2SU      0.048200
     25 H10         3.3580    3.1620    3.0060 h4        1 2SU      0.174000
     26 H11        -0.2220    1.9650   -0.5650 ha        1 2SU      0.147000
     27 H12         2.5730    6.1560   -0.9920 ha        1 2SU      0.137000
     28 H13        -0.5400    3.5450   -2.4820 ha        1 2SU      0.137000
     29 H14         0.8320    5.5910   -2.6890 ha        1 2SU      0.136000
     30 H053        3.1120    0.5470   -0.1800 hn        1 2SU      0.446800
@<TRIPOS>BOND
     1    1   10 1   
     2    2   13 1   
     3    3   13 1   
     4    4   11 1   
     5    4   12 1   
     6    4   18 1   
     7    5    6 1   
     8    5   19 1   
     9    5   20 1   
    10    5   30 1   
    11    6    7 1   
    12    6   10 1   
    13    6   13 1   
    14    7    8 1   
    15    7   21 1   
    16    7   22 1   
    17    8    9 1   
    18    8   12 2   
    19    9   11 ar  
    20    9   14 ar  
    21   10   23 1   
    22   10   24 1   
    23   11   15 ar  
    24   12   25 1   
    25   14   16 ar  
    26   14   26 1   
    27   15   17 ar  
    28   15   27 1   
    29   16   17 ar  
    30   16   28 1   
    31   17   29 1   
@<TRIPOS>SUBSTRUCTURE
     1 2SU         1 TEMP              0 ****  ****    0 ROOT
