@<TRIPOS>MOLECULE
2SU
   29    30     1     0     0
SMALL
bcc


@<TRIPOS>ATOM
      1 F01         1.8000   -1.0370   -0.7280 f         1 2SU     -0.259300
      2 O02         1.8240   -2.2950    2.7410 o         1 2SU     -0.826800
      3 O03        -0.0550   -1.1830    2.2410 o         1 2SU     -0.826800
      4 N04         3.2860    3.8110   -0.0260 na        1 2SU     -0.204400
      5 N05         3.1710    0.1940    2.4700 n3        1 2SU     -0.901800
      6 C06         2.0870   -0.1980    1.5600 c3        1 2SU     -0.001800
      7 C07         1.1710    0.9750    1.1950 c3        1 2SU     -0.006200
      8 C08         1.8010    2.1800    0.6370 cc        1 2SU     -0.085400
      9 C09         1.0420    3.2970    0.0880 ca        1 2SU     -0.090800
     10 C10         2.7160   -0.8280    0.2850 c3        1 2SU      0.179900
     11 C11         2.0080    4.2800   -0.3530 ca        1 2SU     -0.056200
     12 C12         3.1430    2.5160    0.5150 cd        1 2SU     -0.117100
     13 C13         1.1930   -1.3270    2.2300 c         1 2SU      0.897600
     14 C14        -0.3180    3.5530   -0.0690 ca        1 2SU     -0.074000
     15 C15         1.5930    5.4810   -0.9430 ca        1 2SU     -0.161000
     16 C16        -0.7140    4.7490   -0.6570 ca        1 2SU     -0.176000
     17 C17         0.2290    5.6950   -1.0880 ca        1 2SU     -0.127000
     18 H2          4.1050    4.1260   -0.4720 hn        1 2SU      0.273700
     19 H3          2.7660    0.7220    3.2210 hn        1 2SU      0.342300
     20 H4          3.5460   -0.6530    2.8660 hn        1 2SU      0.342300
     21 H6          0.4160    0.5770    0.4600 hc        1 2SU      0.071700
     22 H7          0.5900    1.2620    2.1160 hc        1 2SU      0.071700
     23 H8          3.1600   -1.8230    0.5700 h1        1 2SU      0.030700
     24 H9          3.5250   -0.1580   -0.1200 h1        1 2SU      0.030700
     25 H10         4.0290    1.9480    0.8110 h4        1 2SU      0.186000
     26 H11        -1.0560    2.8110    0.2690 ha        1 2SU      0.145000
     27 H12         2.3220    6.2290   -1.2800 ha        1 2SU      0.116000
     28 H13        -1.7840    4.9610   -0.7900 ha        1 2SU      0.116000
     29 H14        -0.1230    6.6280   -1.5520 ha        1 2SU      0.111000
@<TRIPOS>BOND
     1    1   10 1   
     2    2   13 1   
     3    3   13 1   
     4    4   11 1   
     5    4   12 1   
     6    4   18 1   
     7    5    6 1   
     8    5   19 1   
     9    5   20 1   
    10    6    7 1   
    11    6   10 1   
    12    6   13 1   
    13    7    8 1   
    14    7   21 1   
    15    7   22 1   
    16    8    9 1   
    17    8   12 2   
    18    9   11 ar  
    19    9   14 ar  
    20   10   23 1   
    21   10   24 1   
    22   11   15 ar  
    23   12   25 1   
    24   14   16 ar  
    25   14   26 1   
    26   15   17 ar  
    27   15   27 1   
    28   16   17 ar  
    29   16   28 1   
    30   17   29 1   
@<TRIPOS>SUBSTRUCTURE
     1 2SU         1 TEMP              0 ****  ****    0 ROOT
