@<TRIPOS>MOLECULE
2SW
   71    73     1     0     0
SMALL
bcc


@<TRIPOS>ATOM
      1 C17        -0.4280   -0.2980   -0.8120 ca        1 2SW     -0.130000
      2 C16         0.8400   -0.4010   -1.3890 ca        1 2SW      0.011400
      3 Cl2         0.9810   -0.7870   -3.0460 cl        1 2SW     -0.128400
      4 C15         1.9940   -0.1890   -0.6310 ca        1 2SW     -0.137000
      5 C14         1.8660    0.1330    0.7190 ca        1 2SW     -0.129000
      6 C13         0.6070    0.2350    1.3080 ca        1 2SW     -0.104000
      7 C6         -0.5490    0.0110    0.5470 ca        1 2SW     -0.046300
      8 C2         -1.8890    0.1440    1.2050 c3        1 2SW     -0.060400
      9 C3         -2.6180    1.3580    0.6630 c3        1 2SW     -0.069400
     10 C4         -4.0160    1.4900    1.2530 c3        1 2SW     -0.071000
     11 C21        -4.0430    1.7510    2.7620 c3        1 2SW     -0.196400
     12 C23        -2.7300    2.3210    3.3280 c         1 2SW      0.908600
     13 O3         -2.0470    1.5530    4.0720 o         1 2SW     -0.841300
     14 O2         -2.4020    3.5040    3.0400 o         1 2SW     -0.841300
     15 C24        -4.7200    2.6390    0.5370 c3        1 2SW     -0.084100
     16 C5         -4.8000    0.2010    0.9990 c         1 2SW      0.705500
     17 O1         -6.0490    0.2130    0.9300 o         1 2SW     -0.683500
     18 N1         -4.1200   -1.0060    0.8150 n         1 2SW     -0.466800
     19 C18        -4.9020   -2.1700    0.4240 c3        1 2SW      0.152700
     20 C19        -4.2880   -3.0020   -0.7160 c3        1 2SW     -0.097400
     21 C22        -4.0950   -2.2010   -1.9760 c3        1 2SW     -0.087100
     22 C20        -5.2380   -3.1110    1.6000 c3        1 2SW     -0.354600
     23 C1         -2.6980   -1.1730    1.0700 c3        1 2SW      0.172000
     24 C7         -2.3920   -2.0480    2.2770 ca        1 2SW     -0.103300
     25 C8         -1.9210   -3.3500    2.0650 ca        1 2SW     -0.114000
     26 C9         -1.6110   -4.1820    3.1390 ca        1 2SW     -0.133000
     27 C10        -1.7690   -3.7030    4.4420 ca        1 2SW      0.014400
     28 Cl1        -1.3990   -4.7180    5.7620 cl        1 2SW     -0.123400
     29 C11        -2.2160   -2.4000    4.6700 ca        1 2SW     -0.133000
     30 C12        -2.5230   -1.5750    3.5880 ca        1 2SW     -0.114000
     31 S1         -6.6130   -4.0960    1.4120 s6        1 2SW      1.280000
     32 O4         -7.1010   -4.0690    0.0900 o         1 2SW     -0.659300
     33 O5         -6.3000   -5.3800    1.9100 o         1 2SW     -0.659300
     34 C25        -7.8030   -3.3670    2.4660 c3        1 2SW     -0.225200
     35 C26        -8.1520   -1.9630    2.0100 c3        1 2SW     -0.082433
     36 C27        -9.0470   -4.2400    2.3610 c3        1 2SW     -0.082433
     37 C28        -7.3500   -3.3410    3.9130 c3        1 2SW     -0.082433
     38 H1         -1.3300   -0.4500   -1.4250 ha        1 2SW      0.144000
     39 H2          2.9880   -0.2710   -1.0930 ha        1 2SW      0.134000
     40 H3          2.7680    0.3120    1.3230 ha        1 2SW      0.131000
     41 H4          0.5110    0.5070    2.3730 ha        1 2SW      0.171000
     42 H5         -1.7160    0.3500    2.3110 hc        1 2SW      0.142700
     43 H6         -2.0350    2.2840    0.9270 hc        1 2SW      0.065700
     44 H7         -2.6900    1.2940   -0.4550 hc        1 2SW      0.065700
     45 H8         -4.2790    0.8020    3.3080 hc        1 2SW      0.037700
     46 H9         -4.8610    2.4800    2.9940 hc        1 2SW      0.037700
     47 H11        -4.2150    3.5950    0.8200 hc        1 2SW      0.043700
     48 H12        -5.7930    2.6840    0.8420 hc        1 2SW      0.043700
     49 H13        -4.6710    2.5060   -0.5700 hc        1 2SW      0.043700
     50 H14        -5.8970   -1.7780    0.0310 h1        1 2SW      0.093700
     51 H15        -3.3170   -3.4600   -0.3950 hc        1 2SW      0.050200
     52 H16        -5.0020   -3.8450   -0.9270 hc        1 2SW      0.050200
     53 H17        -5.0520   -1.7090   -2.2780 hc        1 2SW      0.035700
     54 H18        -3.3220   -1.4070   -1.8390 hc        1 2SW      0.035700
     55 H19        -3.7650   -2.8720   -2.8060 hc        1 2SW      0.035700
     56 H20        -4.3360   -3.7660    1.7790 h1        1 2SW      0.133700
     57 H21        -5.3040   -2.4820    2.5300 h1        1 2SW      0.133700
     58 H22        -2.2910   -1.7190    0.1590 h1        1 2SW      0.047700
     59 H23        -1.7780   -3.7280    1.0410 ha        1 2SW      0.170500
     60 H24        -1.2430   -5.2020    2.9590 ha        1 2SW      0.144500
     61 H25        -2.3140   -2.0100    5.6940 ha        1 2SW      0.144500
     62 H26        -2.8170   -0.5210    3.7890 ha        1 2SW      0.170500
     63 H27        -8.5010   -1.9790    0.9480 hc        1 2SW      0.054144
     64 H28        -8.9670   -1.5430    2.6460 hc        1 2SW      0.054144
     65 H29        -7.2650   -1.2820    2.0830 hc        1 2SW      0.054144
     66 H30        -8.8260   -5.2710    2.7320 hc        1 2SW      0.054144
     67 H31        -9.3920   -4.2930    1.2990 hc        1 2SW      0.054144
     68 H32        -9.8730   -3.8100    2.9780 hc        1 2SW      0.054144
     69 H33        -6.8720   -4.3150    4.1860 hc        1 2SW      0.054144
     70 H34        -8.2260   -3.1780    4.5870 hc        1 2SW      0.054144
     71 H35        -6.6270   -2.5100    4.0960 hc        1 2SW      0.054144
@<TRIPOS>BOND
     1    1    2 ar  
     2    1    7 ar  
     3    1   38 1   
     4    2    3 1   
     5    2    4 ar  
     6    4    5 ar  
     7    4   39 1   
     8    5    6 ar  
     9    5   40 1   
    10    6    7 ar  
    11    6   41 1   
    12    7    8 1   
    13    8    9 1   
    14    8   23 1   
    15    8   42 1   
    16    9   10 1   
    17    9   43 1   
    18    9   44 1   
    19   10   11 1   
    20   10   15 1   
    21   10   16 1   
    22   11   12 1   
    23   11   45 1   
    24   11   46 1   
    25   12   13 1   
    26   12   14 1   
    27   15   47 1   
    28   15   48 1   
    29   15   49 1   
    30   16   17 2   
    31   16   18 1   
    32   18   19 1   
    33   18   23 1   
    34   19   20 1   
    35   19   22 1   
    36   19   50 1   
    37   20   21 1   
    38   20   51 1   
    39   20   52 1   
    40   21   53 1   
    41   21   54 1   
    42   21   55 1   
    43   22   31 1   
    44   22   56 1   
    45   22   57 1   
    46   23   24 1   
    47   23   58 1   
    48   24   25 ar  
    49   24   30 ar  
    50   25   26 ar  
    51   25   59 1   
    52   26   27 ar  
    53   26   60 1   
    54   27   28 1   
    55   27   29 ar  
    56   29   30 ar  
    57   29   61 1   
    58   30   62 1   
    59   31   32 2   
    60   31   33 2   
    61   31   34 1   
    62   34   35 1   
    63   34   36 1   
    64   34   37 1   
    65   35   63 1   
    66   35   64 1   
    67   35   65 1   
    68   36   66 1   
    69   36   67 1   
    70   36   68 1   
    71   37   69 1   
    72   37   70 1   
    73   37   71 1   
@<TRIPOS>SUBSTRUCTURE
     1 2SW         1 TEMP              0 ****  ****    0 ROOT
