@<TRIPOS>MOLECULE
2SW
   71    73     1     0     0
SMALL
bcc


@<TRIPOS>ATOM
      1 C17        -0.2300   -0.4860   -0.6060 ca        1 2SW     -0.133000
      2 C16         1.1100   -0.5050   -1.0050 ca        1 2SW      0.008400
      3 CL2         1.5240   -1.1850   -2.5160 cl        1 2SW     -0.134400
      4 C15         2.1120    0.0280   -0.1920 ca        1 2SW     -0.137000
      5 C14         1.7580    0.5960    1.0320 ca        1 2SW     -0.130000
      6 C13         0.4290    0.6160    1.4470 ca        1 2SW     -0.102000
      7 C6         -0.5730    0.0560    0.6360 ca        1 2SW     -0.049300
      8 C2         -1.9800    0.1280    1.1360 c3        1 2SW     -0.056400
      9 C3         -2.6960    1.3100    0.5070 c3        1 2SW     -0.066400
     10 C4         -4.0600    1.4940    1.1610 c3        1 2SW     -0.074000
     11 C21        -3.9560    1.8350    2.6500 c3        1 2SW     -0.194400
     12 C23        -2.7130    2.6920    2.9700 c         1 2SW      0.910600
     13 O3         -1.7300    2.1070    3.5180 o         1 2SW     -0.842300
     14 O2         -2.7320    3.9160    2.6710 o         1 2SW     -0.842300
     15 C24        -4.7980    2.6170    0.4450 c3        1 2SW     -0.089100
     16 C5         -4.8640    0.1980    1.0280 c         1 2SW      0.706500
     17 O1         -6.1140    0.2050    1.0880 o         1 2SW     -0.679500
     18 N1         -4.2080   -1.0190    0.8110 n         1 2SW     -0.474800
     19 C18        -5.0130   -2.1800    0.4630 c3        1 2SW      0.154700
     20 C19        -4.4680   -3.0000   -0.7210 c3        1 2SW     -0.099400
     21 C22        -4.3620   -2.1890   -1.9850 c3        1 2SW     -0.088100
     22 C20        -5.2570   -3.1340    1.6520 c3        1 2SW     -0.352600
     23 C1         -2.7680   -1.1880    0.9290 c3        1 2SW      0.168000
     24 C7         -2.3650   -2.1560    2.0290 ca        1 2SW     -0.090300
     25 C8         -1.7180   -3.3500    1.6920 ca        1 2SW     -0.111500
     26 C9         -1.3030   -4.2390    2.6830 ca        1 2SW     -0.129000
     27 C10        -1.5390   -3.9290    4.0250 ca        1 2SW      0.015400
     28 CL1        -1.0360   -5.0120    5.2410 cl        1 2SW     -0.116400
     29 C11        -2.1790   -2.7380    4.3770 ca        1 2SW     -0.129000
     30 C12        -2.5910   -1.8570    3.3780 ca        1 2SW     -0.111500
     31 S1         -6.6300   -4.1370    1.5520 s6        1 2SW      1.280000
     32 O4         -7.1900   -4.1310    0.2600 o         1 2SW     -0.658800
     33 O5         -6.2740   -5.4100    2.0490 o         1 2SW     -0.658800
     34 C25        -7.7680   -3.4080    2.6630 c3        1 2SW     -0.225200
     35 C26        -8.1560   -2.0130    2.2120 c3        1 2SW     -0.082767
     36 C27        -9.0070   -4.2950    2.6340 c3        1 2SW     -0.082767
     37 C28        -7.2380   -3.3620    4.0830 c3        1 2SW     -0.082767
     38 H1         -1.0060   -0.8830   -1.2780 ha        1 2SW      0.137000
     39 H2          3.1620    0.0080   -0.5140 ha        1 2SW      0.132000
     40 H3          2.5360    1.0360    1.6730 ha        1 2SW      0.133000
     41 H4          0.1370    1.0980    2.4030 ha        1 2SW      0.201000
     42 H5         -1.9300    0.3420    2.2550 hc        1 2SW      0.138700
     43 H6         -2.0900    2.2430    0.6680 hc        1 2SW      0.064200
     44 H7         -2.8140    1.1510   -0.5960 hc        1 2SW      0.064200
     45 H8         -4.8700    2.4000    2.9610 hc        1 2SW      0.034700
     46 H9         -3.9090    0.8970    3.2580 hc        1 2SW      0.034700
     47 H11        -4.2980    3.5840    0.7080 hc        1 2SW      0.048367
     48 H12        -4.7720    2.4690   -0.6600 hc        1 2SW      0.048367
     49 H13        -5.8640    2.6530    0.7760 hc        1 2SW      0.048367
     50 H14        -6.0340   -1.7900    0.1460 h1        1 2SW      0.092700
     51 H15        -5.1870   -3.8480   -0.8930 hc        1 2SW      0.051200
     52 H16        -3.4740   -3.4500   -0.4620 hc        1 2SW      0.051200
     53 H17        -5.3380   -1.6960   -2.2170 hc        1 2SW      0.036367
     54 H18        -4.0910   -2.8540   -2.8410 hc        1 2SW      0.036367
     55 H19        -3.5810   -1.3950   -1.8980 hc        1 2SW      0.036367
     56 H20        -4.3370   -3.7800    1.7610 h1        1 2SW      0.131200
     57 H21        -5.2660   -2.5140    2.5900 h1        1 2SW      0.131200
     58 H22        -2.4270   -1.6410   -0.0560 h1        1 2SW      0.047700
     59 H23        -1.5180   -3.5910    0.6370 ha        1 2SW      0.151500
     60 H24        -0.7930   -5.1730    2.4070 ha        1 2SW      0.143500
     61 H25        -2.3490   -2.4860    5.4340 ha        1 2SW      0.143500
     62 H26        -3.0750   -0.9060    3.6610 ha        1 2SW      0.151500
     63 H27        -8.5570   -2.0430    1.1690 hc        1 2SW      0.054367
     64 H28        -8.9450   -1.5970    2.8830 hc        1 2SW      0.054367
     65 H29        -7.2760   -1.3200    2.2370 hc        1 2SW      0.054367
     66 H30        -9.4080   -4.3620    1.5920 hc        1 2SW      0.054367
     67 H31        -8.7540   -5.3200    3.0020 hc        1 2SW      0.054367
     68 H32        -9.8020   -3.8670    3.2900 hc        1 2SW      0.054367
     69 H33        -6.7350   -4.3270    4.3390 hc        1 2SW      0.054367
     70 H34        -8.0790   -3.2020    4.8010 hc        1 2SW      0.054367
     71 H35        -6.5170   -2.5200    4.2170 hc        1 2SW      0.054367
@<TRIPOS>BOND
     1    1    2 ar  
     2    1    7 ar  
     3    1   38 1   
     4    2    3 1   
     5    2    4 ar  
     6    4    5 ar  
     7    4   39 1   
     8    5    6 ar  
     9    5   40 1   
    10    6    7 ar  
    11    6   41 1   
    12    7    8 1   
    13    8    9 1   
    14    8   23 1   
    15    8   42 1   
    16    9   10 1   
    17    9   43 1   
    18    9   44 1   
    19   10   11 1   
    20   10   15 1   
    21   10   16 1   
    22   11   12 1   
    23   11   45 1   
    24   11   46 1   
    25   12   13 1   
    26   12   14 1   
    27   15   47 1   
    28   15   48 1   
    29   15   49 1   
    30   16   17 2   
    31   16   18 1   
    32   18   19 1   
    33   18   23 1   
    34   19   20 1   
    35   19   22 1   
    36   19   50 1   
    37   20   21 1   
    38   20   51 1   
    39   20   52 1   
    40   21   53 1   
    41   21   54 1   
    42   21   55 1   
    43   22   31 1   
    44   22   56 1   
    45   22   57 1   
    46   23   24 1   
    47   23   58 1   
    48   24   25 ar  
    49   24   30 ar  
    50   25   26 ar  
    51   25   59 1   
    52   26   27 ar  
    53   26   60 1   
    54   27   28 1   
    55   27   29 ar  
    56   29   30 ar  
    57   29   61 1   
    58   30   62 1   
    59   31   32 2   
    60   31   33 2   
    61   31   34 1   
    62   34   35 1   
    63   34   36 1   
    64   34   37 1   
    65   35   63 1   
    66   35   64 1   
    67   35   65 1   
    68   36   66 1   
    69   36   67 1   
    70   36   68 1   
    71   37   69 1   
    72   37   70 1   
    73   37   71 1   
@<TRIPOS>SUBSTRUCTURE
     1 2SW         1 TEMP              0 ****  ****    0 ROOT
