@<TRIPOS>MOLECULE
2SW
   71    73     1     0     0
SMALL
bcc


@<TRIPOS>ATOM
      1 C17        -0.2380   -0.5050   -0.6270 ca        1 2SW     -0.133000
      2 C16         1.0980   -0.5330   -1.0360 ca        1 2SW      0.008400
      3 CL2         1.4940   -1.2060   -2.5560 cl        1 2SW     -0.134400
      4 C15         2.1110   -0.0170   -0.2280 ca        1 2SW     -0.137000
      5 C14         1.7730    0.5450    1.0040 ca        1 2SW     -0.130000
      6 C13         0.4480    0.5760    1.4290 ca        1 2SW     -0.102000
      7 C6         -0.5660    0.0310    0.6210 ca        1 2SW     -0.049300
      8 C2         -1.9690    0.1130    1.1330 c3        1 2SW     -0.056400
      9 C3         -2.6780    1.3070    0.5190 c3        1 2SW     -0.066400
     10 C4         -4.0350    1.4990    1.1860 c3        1 2SW     -0.074000
     11 C21        -3.9150    1.8270    2.6760 c3        1 2SW     -0.194400
     12 C23        -2.6620    2.6690    2.9920 c         1 2SW      0.910600
     13 O3         -1.6810    2.0700    3.5290 o         1 2SW     -0.842300
     14 O2         -2.6710    3.8960    2.7030 o         1 2SW     -0.842300
     15 C24        -4.7680    2.6350    0.4840 c3        1 2SW     -0.089100
     16 C5         -4.8530    0.2110    1.0490 c         1 2SW      0.706500
     17 O1         -6.1010    0.2310    1.1190 o         1 2SW     -0.679500
     18 N1         -4.2110   -1.0100    0.8160 n         1 2SW     -0.474800
     19 C18        -5.0290   -2.1600    0.4660 c3        1 2SW      0.154700
     20 C19        -4.5020   -2.9760   -0.7280 c3        1 2SW     -0.099400
     21 C22        -4.3980   -2.1560   -1.9870 c3        1 2SW     -0.088100
     22 C20        -5.2730   -3.1210    1.6490 c3        1 2SW     -0.352600
     23 C1         -2.7710   -1.1940    0.9210 c3        1 2SW      0.168000
     24 C7         -2.3690   -2.1740    2.0110 ca        1 2SW     -0.090300
     25 C8         -1.7360   -3.3720    1.6590 ca        1 2SW     -0.111500
     26 C9         -1.3220   -4.2720    2.6390 ca        1 2SW     -0.129000
     27 C10        -1.5440   -3.9720    3.9850 ca        1 2SW      0.015400
     28 CL1        -1.0420   -5.0690    5.1890 cl        1 2SW     -0.116400
     29 C11        -2.1710   -2.7770    4.3520 ca        1 2SW     -0.129000
     30 C12        -2.5810   -1.8850    3.3640 ca        1 2SW     -0.111500
     31 S1         -6.6570   -4.1090    1.5530 s6        1 2SW      1.280000
     32 O4         -7.2270   -4.0890    0.2650 o         1 2SW     -0.658800
     33 O5         -6.3090   -5.3900    2.0380 o         1 2SW     -0.658800
     34 C25        -7.7790   -3.3780    2.6780 c3        1 2SW     -0.225200
     35 C26        -8.1570   -1.9760    2.2410 c3        1 2SW     -0.082767
     36 C27        -9.0260   -4.2530    2.6530 c3        1 2SW     -0.082767
     37 C28        -7.2370   -3.3480    4.0940 c3        1 2SW     -0.082767
     38 H1         -1.0230   -0.8890   -1.2960 ha        1 2SW      0.137000
     39 H2          3.1590   -0.0440   -0.5580 ha        1 2SW      0.132000
     40 H3          2.5600    0.9740    1.6420 ha        1 2SW      0.133000
     41 H4          0.1670    1.0530    2.3910 ha        1 2SW      0.201000
     42 H5         -1.9080    0.3170    2.2530 hc        1 2SW      0.138700
     43 H6         -2.8070    1.1580   -0.5850 hc        1 2SW      0.064200
     44 H7         -2.0620    2.2330    0.6820 hc        1 2SW      0.064200
     45 H8         -4.8220    2.3990    2.9990 hc        1 2SW      0.034700
     46 H9         -3.8730    0.8840    3.2760 hc        1 2SW      0.034700
     47 H11        -5.8300    2.6780    0.8240 hc        1 2SW      0.048367
     48 H12        -4.7520    2.4950   -0.6230 hc        1 2SW      0.048367
     49 H13        -4.2560    3.5950    0.7500 hc        1 2SW      0.048367
     50 H14        -6.0490   -1.7570    0.1600 h1        1 2SW      0.092700
     51 H15        -3.5110   -3.4370   -0.4810 hc        1 2SW      0.051200
     52 H16        -5.2300   -3.8150   -0.9010 hc        1 2SW      0.051200
     53 H17        -4.1400   -2.8170   -2.8500 hc        1 2SW      0.036367
     54 H18        -3.6080   -1.3710   -1.9000 hc        1 2SW      0.036367
     55 H19        -5.3700   -1.6510   -2.2080 hc        1 2SW      0.036367
     56 H20        -5.2690   -2.5080    2.5930 h1        1 2SW      0.131200
     57 H21        -4.3590   -3.7760    1.7460 h1        1 2SW      0.131200
     58 H22        -2.4420   -1.6420   -0.0690 h1        1 2SW      0.047700
     59 H23        -1.5470   -3.6060    0.6000 ha        1 2SW      0.151500
     60 H24        -0.8230   -5.2090    2.3520 ha        1 2SW      0.143500
     61 H25        -2.3300   -2.5330    5.4130 ha        1 2SW      0.143500
     62 H26        -3.0540   -0.9320    3.6580 ha        1 2SW      0.151500
     63 H27        -7.2710   -1.2920    2.2630 hc        1 2SW      0.054367
     64 H28        -8.9370   -1.5580    2.9210 hc        1 2SW      0.054367
     65 H29        -8.5670   -1.9950    1.2010 hc        1 2SW      0.054367
     66 H30        -8.7800   -5.2830    3.0110 hc        1 2SW      0.054367
     67 H31        -9.8120   -3.8230    3.3190 hc        1 2SW      0.054367
     68 H32        -9.4360   -4.3090    1.6140 hc        1 2SW      0.054367
     69 H33        -8.0700   -3.1860    4.8210 hc        1 2SW      0.054367
     70 H34        -6.5070   -2.5130    4.2290 hc        1 2SW      0.054367
     71 H35        -6.7400   -4.3190    4.3390 hc        1 2SW      0.054367
@<TRIPOS>BOND
     1    1    2 ar  
     2    1    7 ar  
     3    1   38 1   
     4    2    3 1   
     5    2    4 ar  
     6    4    5 ar  
     7    4   39 1   
     8    5    6 ar  
     9    5   40 1   
    10    6    7 ar  
    11    6   41 1   
    12    7    8 1   
    13    8    9 1   
    14    8   23 1   
    15    8   42 1   
    16    9   10 1   
    17    9   43 1   
    18    9   44 1   
    19   10   11 1   
    20   10   15 1   
    21   10   16 1   
    22   11   12 1   
    23   11   45 1   
    24   11   46 1   
    25   12   13 1   
    26   12   14 1   
    27   15   47 1   
    28   15   48 1   
    29   15   49 1   
    30   16   17 2   
    31   16   18 1   
    32   18   19 1   
    33   18   23 1   
    34   19   20 1   
    35   19   22 1   
    36   19   50 1   
    37   20   21 1   
    38   20   51 1   
    39   20   52 1   
    40   21   53 1   
    41   21   54 1   
    42   21   55 1   
    43   22   31 1   
    44   22   56 1   
    45   22   57 1   
    46   23   24 1   
    47   23   58 1   
    48   24   25 ar  
    49   24   30 ar  
    50   25   26 ar  
    51   25   59 1   
    52   26   27 ar  
    53   26   60 1   
    54   27   28 1   
    55   27   29 ar  
    56   29   30 ar  
    57   29   61 1   
    58   30   62 1   
    59   31   32 2   
    60   31   33 2   
    61   31   34 1   
    62   34   35 1   
    63   34   36 1   
    64   34   37 1   
    65   35   63 1   
    66   35   64 1   
    67   35   65 1   
    68   36   66 1   
    69   36   67 1   
    70   36   68 1   
    71   37   69 1   
    72   37   70 1   
    73   37   71 1   
@<TRIPOS>SUBSTRUCTURE
     1 2SW         1 TEMP              0 ****  ****    0 ROOT
