@<TRIPOS>MOLECULE
2SX
   21    22     1     0     0
SMALL
bcc


@<TRIPOS>ATOM
      1 O14         1.3790   -2.0390   -0.4990 o         1 2SX     -0.848300
      2 C12         1.6170   -0.8630   -0.0910 c         1 2SX      0.916600
      3 O13         1.7970   -0.5670    1.1230 o         1 2SX     -0.848300
      4 C11         1.7400    0.2850   -1.1170 c3        1 2SX     -0.144200
      5 C9          0.7810    0.2240   -2.2220 cc        1 2SX     -0.083400
      6 C5          0.3040    1.3360   -3.0250 ca        1 2SX     -0.092800
      7 C4          0.5520    2.7050   -3.0250 ca        1 2SX     -0.049000
      8 C1         -0.0960    3.5070   -3.9610 ca        1 2SX     -0.065900
      9 Br1         0.2250    5.3600   -3.9820 br        1 2SX     -0.144100
     10 C8          0.1560   -0.9210   -2.7130 cd        1 2SX     -0.093100
     11 N7         -0.6680   -0.6000   -3.8040 na        1 2SX     -0.204400
     12 C6         -0.6230    0.7790   -3.9960 ca        1 2SX     -0.051200
     13 C3         -1.2670    1.6050   -4.9280 ca        1 2SX     -0.159000
     14 C2         -0.9940    2.9640   -4.8980 ca        1 2SX     -0.111000
     15 H2          2.7840    0.2390   -1.5300 hc        1 2SX      0.038200
     16 H3          1.6330    1.2610   -0.5750 hc        1 2SX      0.038200
     17 H4          1.2510    3.1290   -2.2870 ha        1 2SX      0.149000
     18 H5          0.2640   -1.9460   -2.3290 h4        1 2SX      0.226000
     19 H6         -1.3270   -1.2010   -4.2160 hn        1 2SX      0.281700
     20 H7         -1.9690    1.1910   -5.6630 ha        1 2SX      0.119000
     21 H8         -1.4920    3.6260   -5.6220 ha        1 2SX      0.124000
@<TRIPOS>BOND
     1    1    2 1   
     2    2    3 1   
     3    2    4 1   
     4    4    5 1   
     5    4   15 1   
     6    4   16 1   
     7    5    6 1   
     8    5   10 2   
     9    6    7 ar  
    10    6   12 ar  
    11    7    8 ar  
    12    7   17 1   
    13    8    9 1   
    14    8   14 ar  
    15   10   11 1   
    16   10   18 1   
    17   11   12 1   
    18   11   19 1   
    19   12   13 ar  
    20   13   14 ar  
    21   13   20 1   
    22   14   21 1   
@<TRIPOS>SUBSTRUCTURE
     1 2SX         1 TEMP              0 ****  ****    0 ROOT
