@<TRIPOS>MOLECULE
2SX
   21    22     1     0     0
SMALL
bcc


@<TRIPOS>ATOM
      1 O14         1.3970   -2.0160   -0.4780 o         1 2SX     -0.848300
      2 C12         1.6130   -0.8360   -0.0710 c         1 2SX      0.916600
      3 O13         1.7770   -0.5330    1.1430 o         1 2SX     -0.848300
      4 C11         1.7320    0.3110   -1.0990 c3        1 2SX     -0.144200
      5 C9          0.7850    0.2330   -2.2150 cc        1 2SX     -0.083400
      6 C5          0.3010    1.3360   -3.0260 ca        1 2SX     -0.092800
      7 C4          0.5290    2.7080   -3.0280 ca        1 2SX     -0.049000
      8 C1         -0.1210    3.4980   -3.9720 ca        1 2SX     -0.065900
      9 BR1         0.1740    5.3550   -3.9960 br        1 2SX     -0.144100
     10 C8          0.1820   -0.9230   -2.7090 cd        1 2SX     -0.093100
     11 N7         -0.6350   -0.6160   -3.8100 na        1 2SX     -0.204400
     12 C6         -0.6070    0.7630   -4.0050 ca        1 2SX     -0.051200
     13 C3         -1.2530    1.5770   -4.9470 ca        1 2SX     -0.159000
     14 C2         -1.0000    2.9390   -4.9180 ca        1 2SX     -0.111000
     15 H2          2.7800    0.2780   -1.5010 hc        1 2SX      0.038200
     16 H3          1.6050    1.2870   -0.5620 hc        1 2SX      0.038200
     17 H4          1.2140    3.1440   -2.2830 ha        1 2SX      0.149000
     18 H5          0.3000   -1.9450   -2.3200 h4        1 2SX      0.226000
     19 H6         -1.2810   -1.2280   -4.2260 hn        1 2SX      0.281700
     20 H7         -1.9410    1.1500   -5.6870 ha        1 2SX      0.119000
     21 H8         -1.5010    3.5920   -5.6490 ha        1 2SX      0.124000
@<TRIPOS>BOND
     1    1    2 1   
     2    2    3 1   
     3    2    4 1   
     4    4    5 1   
     5    4   15 1   
     6    4   16 1   
     7    5    6 1   
     8    5   10 2   
     9    6    7 ar  
    10    6   12 ar  
    11    7    8 ar  
    12    7   17 1   
    13    8    9 1   
    14    8   14 ar  
    15   10   11 1   
    16   10   18 1   
    17   11   12 1   
    18   11   19 1   
    19   12   13 ar  
    20   13   14 ar  
    21   13   20 1   
    22   14   21 1   
@<TRIPOS>SUBSTRUCTURE
     1 2SX         1 TEMP              0 ****  ****    0 ROOT
