@<TRIPOS>MOLECULE
2SY
   34    36     1     0     0
SMALL
bcc


@<TRIPOS>ATOM
      1 Cl2         0.3690   -1.3530    0.3810 cl        1 2SY     -0.098400
      2 C16         1.8830   -0.5890    0.2480 ca        1 2SY      0.018400
      3 C13         2.7960   -0.6690    1.3030 ca        1 2SY     -0.096000
      4 C20         2.1960    0.1150   -0.9200 ca        1 2SY     -0.134000
      5 C17         3.4360    0.7390   -1.0270 ca        1 2SY     -0.133000
      6 C14         4.3550    0.6630    0.0180 ca        1 2SY     -0.128000
      7 C10         4.0380   -0.0370    1.1860 ca        1 2SY     -0.098300
      8 C6          5.0240   -0.0630    2.3250 c3        1 2SY      0.095600
      9 N2          5.2800   -1.3310    2.9270 na        1 2SY     -0.096400
     10 C5          4.4400   -1.9380    3.8900 cc        1 2SY     -0.102100
     11 C7          4.7820   -3.2740    4.0620 cd        1 2SY     -0.080400
     12 C11         4.1640   -4.2230    4.9920 c3        1 2SY     -0.143200
     13 C15         3.3840   -3.5790    6.1590 c         1 2SY      0.916600
     14 O19         2.6860   -2.5440    5.9470 o         1 2SY     -0.849300
     15 O18         3.4590   -4.1540    7.2810 o         1 2SY     -0.849300
     16 C3          5.8620   -3.5560    3.1310 ca        1 2SY     -0.083800
     17 C1          6.1240   -2.3260    2.4080 ca        1 2SY     -0.048200
     18 C8          6.6230   -4.6870    2.8490 ca        1 2SY     -0.085000
     19 C12         7.6080   -4.6160    1.8700 ca        1 2SY     -0.176000
     20 C9          7.8490   -3.4260    1.1690 ca        1 2SY     -0.136000
     21 C4          7.1200   -2.2710    1.4250 ca        1 2SY     -0.154000
     22 H1          2.5460   -1.2320    2.2220 ha        1 2SY      0.183000
     23 H2          1.4720    0.1720   -1.7460 ha        1 2SY      0.136000
     24 H3          3.6910    1.2910   -1.9440 ha        1 2SY      0.125000
     25 H4          5.3350    1.1540   -0.0790 ha        1 2SY      0.128000
     26 H5          4.6270    0.6230    3.1320 h1        1 2SY      0.060700
     27 H6          6.0100    0.3520    1.9610 h1        1 2SY      0.060700
     28 H7          3.6740   -1.3760    4.4430 h4        1 2SY      0.223000
     29 H8          4.9500   -4.8990    5.4200 hc        1 2SY      0.038200
     30 H9          3.4340   -4.8660    4.4300 hc        1 2SY      0.038200
     31 H11         6.4410   -5.6190    3.4040 ha        1 2SY      0.133000
     32 H12         8.2110   -5.5050    1.6390 ha        1 2SY      0.111000
     33 H13         8.6330   -3.4070    0.3980 ha        1 2SY      0.108000
     34 H14         7.3190   -1.3450    0.8720 ha        1 2SY      0.115000
@<TRIPOS>BOND
     1    1    2 1   
     2    2    3 ar  
     3    2    4 ar  
     4    3    7 ar  
     5    3   22 1   
     6    4    5 ar  
     7    4   23 1   
     8    5    6 ar  
     9    5   24 1   
    10    6    7 ar  
    11    6   25 1   
    12    7    8 1   
    13    8    9 1   
    14    8   26 1   
    15    8   27 1   
    16    9   10 1   
    17    9   17 1   
    18   10   11 2   
    19   10   28 1   
    20   11   12 1   
    21   11   16 1   
    22   12   13 1   
    23   12   29 1   
    24   12   30 1   
    25   13   14 1   
    26   13   15 1   
    27   16   17 ar  
    28   16   18 ar  
    29   17   21 ar  
    30   18   19 ar  
    31   18   31 1   
    32   19   20 ar  
    33   19   32 1   
    34   20   21 ar  
    35   20   33 1   
    36   21   34 1   
@<TRIPOS>SUBSTRUCTURE
     1 2SY         1 TEMP              0 ****  ****    0 ROOT
