@<TRIPOS>MOLECULE
2SY
   34    36     1     0     0
SMALL
bcc


@<TRIPOS>ATOM
      1 CL2         0.3470   -1.3810    0.4240 cl        1 2SY     -0.098400
      2 C16         1.8490   -0.5930    0.2940 ca        1 2SY      0.018400
      3 C13         2.7710   -0.6800    1.3410 ca        1 2SY     -0.096000
      4 C20         2.1430    0.1360   -0.8630 ca        1 2SY     -0.134000
      5 C17         3.3740    0.7800   -0.9680 ca        1 2SY     -0.133000
      6 C14         4.3020    0.6980    0.0690 ca        1 2SY     -0.128000
      7 C10         4.0030   -0.0280    1.2270 ca        1 2SY     -0.098300
      8 C6          4.9990   -0.0600    2.3580 c3        1 2SY      0.095600
      9 N2          5.2760   -1.3360    2.9350 na        1 2SY     -0.096400
     10 C5          4.4520   -1.9720    3.8930 cc        1 2SY     -0.102100
     11 C7          4.8120   -3.3050    4.0380 cd        1 2SY     -0.080400
     12 C11         4.2150   -4.2800    4.9550 c3        1 2SY     -0.143200
     13 C15         3.4350   -3.6680    6.1380 c         1 2SY      0.916600
     14 O19         2.7210   -2.6390    5.9500 o         1 2SY     -0.849300
     15 O18         3.5260   -4.2620    7.2490 o         1 2SY     -0.849300
     16 C3          5.8910   -3.5560    3.0940 ca        1 2SY     -0.083800
     17 C1          6.1300   -2.3090    2.3910 ca        1 2SY     -0.048200
     18 C8          6.6650   -4.6700    2.7870 ca        1 2SY     -0.085000
     19 C12         7.6420   -4.5680    1.8020 ca        1 2SY     -0.176000
     20 C9          7.8610   -3.3630    1.1210 ca        1 2SY     -0.136000
     21 C4          7.1180   -2.2230    1.4030 ca        1 2SY     -0.154000
     22 H1          2.5360   -1.2620    2.2510 ha        1 2SY      0.183000
     23 H2          1.4130    0.1990   -1.6820 ha        1 2SY      0.136000
     24 H3          3.6150    1.3520   -1.8750 ha        1 2SY      0.125000
     25 H4          5.2740    1.2050   -0.0260 ha        1 2SY      0.128000
     26 H5          4.5980    0.6050    3.1800 h1        1 2SY      0.060700
     27 H6          5.9760    0.3740    1.9940 h1        1 2SY      0.060700
     28 H7          3.6810   -1.4300    4.4610 h4        1 2SY      0.223000
     29 H8          5.0130   -4.9530    5.3640 hc        1 2SY      0.038200
     30 H9          3.4890   -4.9230    4.3860 hc        1 2SY      0.038200
     31 H11         6.4990   -5.6150    3.3250 ha        1 2SY      0.133000
     32 H12         8.2550   -5.4450    1.5510 ha        1 2SY      0.111000
     33 H13         8.6390   -3.3180    0.3450 ha        1 2SY      0.108000
     34 H14         7.3010   -1.2840    0.8660 ha        1 2SY      0.115000
@<TRIPOS>BOND
     1    1    2 1   
     2    2    3 ar  
     3    2    4 ar  
     4    3    7 ar  
     5    3   22 1   
     6    4    5 ar  
     7    4   23 1   
     8    5    6 ar  
     9    5   24 1   
    10    6    7 ar  
    11    6   25 1   
    12    7    8 1   
    13    8    9 1   
    14    8   26 1   
    15    8   27 1   
    16    9   10 1   
    17    9   17 1   
    18   10   11 2   
    19   10   28 1   
    20   11   12 1   
    21   11   16 1   
    22   12   13 1   
    23   12   29 1   
    24   12   30 1   
    25   13   14 1   
    26   13   15 1   
    27   16   17 ar  
    28   16   18 ar  
    29   17   21 ar  
    30   18   19 ar  
    31   18   31 1   
    32   19   20 ar  
    33   19   32 1   
    34   20   21 ar  
    35   20   33 1   
    36   21   34 1   
@<TRIPOS>SUBSTRUCTURE
     1 2SY         1 TEMP              0 ****  ****    0 ROOT
