@<TRIPOS>MOLECULE
2SZ
   71    76     1     0     0
SMALL
bcc


@<TRIPOS>ATOM
      1 C1          0.3420    0.4030    2.3560 c3        1 2SZ      0.157100
      2 N2          1.3430    0.2610    1.3240 n3        1 2SZ     -0.732600
      3 C3          2.5420   -0.4130    1.8000 c3        1 2SZ      0.168800
      4 C4          3.6220   -0.5570    0.7100 c3        1 2SZ      0.165300
      5 N5          3.9250    0.7060    0.0460 n3        1 2SZ     -0.733600
      6 C6          2.7220    1.3770   -0.4300 c3        1 2SZ      0.165300
      7 C7          1.6460    1.5210    0.6620 c3        1 2SZ      0.168800
      8 C8          4.9190    0.5350   -1.0060 c3        1 2SZ      0.110500
      9 C9          5.5550    1.8530   -1.4080 ca        1 2SZ      0.430600
     10 C10         6.2350    2.6060   -0.4250 ca        1 2SZ     -0.226300
     11 C11         6.8570    3.7960   -0.7910 ca        1 2SZ     -0.065000
     12 C12         6.7910    4.2140   -2.1320 ca        1 2SZ     -0.128300
     13 C13         6.0840    3.3940   -3.0460 ca        1 2SZ      0.431200
     14 N14         5.4790    2.2470   -2.7030 nb        1 2SZ     -0.664000
     15 C15         7.3990    5.4010   -2.5620 cg        1 2SZ     -0.027000
     16 C16         7.9180    6.4170   -2.9340 ch        1 2SZ     -0.157000
     17 C17         8.5230    7.6050   -3.3740 ca        1 2SZ      0.082000
     18 C18         8.3400    8.0470   -4.6960 ca        1 2SZ     -0.111000
     19 C19         8.9420    9.2230   -5.1320 ca        1 2SZ     -0.110500
     20 C20         9.7300    9.9830   -4.2550 cp        1 2SZ     -0.104000
     21 C21         9.9150    9.5440   -2.9370 ca        1 2SZ     -0.110500
     22 C22         9.3180    8.3670   -2.4980 ca        1 2SZ     -0.111000
     23 C23        10.4080   11.1840   -4.7380 cp        1 2SZ     -0.168300
     24 C24        11.3540   11.0420   -5.7430 ca        1 2SZ      0.026000
     25 C25        12.1140   12.1520   -6.1800 ca        1 2SZ     -0.400900
     26 C26        11.8670   13.3930   -5.5440 ca        1 2SZ      0.493200
     27 N27        10.9570   13.5760   -4.5990 nb        1 2SZ     -0.699000
     28 C28        10.1780   12.5040   -4.1870 ca        1 2SZ      0.630800
     29 N29         9.2050   12.7390   -3.2380 na        1 2SZ     -0.214100
     30 C30         7.9330   12.0470   -3.1440 cc        1 2SZ      0.444700
     31 N31         7.0700   12.6430   -2.3440 nd        1 2SZ     -0.501100
     32 C32         7.7200   13.8100   -1.8500 ca        1 2SZ      0.070400
     33 C33         9.0530   13.9000   -2.4180 ca        1 2SZ     -0.068200
     34 C34         9.9060   14.9420   -2.0720 ca        1 2SZ     -0.103000
     35 C35         9.4210   15.9010   -1.1770 ca        1 2SZ     -0.108000
     36 C36         8.1360   15.8250   -0.6360 ca        1 2SZ     -0.126000
     37 C37         7.2690   14.7800   -0.9590 ca        1 2SZ     -0.055000
     38 C38        13.0500   11.9350   -7.2530 c         1 2SZ      0.618700
     39 O39        13.1190   11.0880   -8.1180 o         1 2SZ     -0.372100
     40 N40        14.2180   13.0020   -7.2930 n4        1 2SZ     -0.481300
     41 O41        15.3030   12.3860   -7.8100 oh        1 2SZ     -0.339300
     42 H1          0.6700    1.0580    3.2100 h1        1 2SZ      0.034367
     43 H2         -0.5830    0.8460    1.9020 h1        1 2SZ      0.034367
     44 H3          0.0950   -0.6130    2.7610 h1        1 2SZ      0.034367
     45 H5          2.9950    0.1170    2.6880 h1        1 2SZ      0.038450
     46 H6          2.2480   -1.4490    2.1280 h1        1 2SZ      0.038450
     47 H7          3.2890   -1.3450   -0.0280 h1        1 2SZ      0.041200
     48 H8          4.5640   -0.9220    1.2070 h1        1 2SZ      0.041200
     49 H10         3.0190    2.4090   -0.7660 h1        1 2SZ      0.041200
     50 H11         2.2700    0.8410   -1.3150 h1        1 2SZ      0.041200
     51 H12         0.7030    1.8850    0.1680 h1        1 2SZ      0.038450
     52 H13         1.9790    2.3110    1.3980 h1        1 2SZ      0.038450
     53 H14         5.7490   -0.1170   -0.6060 h1        1 2SZ      0.058700
     54 H15         4.4860    0.0180   -1.9130 h1        1 2SZ      0.058700
     55 H16         6.2580    2.2520    0.6160 ha        1 2SZ      0.165000
     56 H17         7.3900    4.4030   -0.0440 ha        1 2SZ      0.146000
     57 H18         6.0000    3.6800   -4.1110 h4        1 2SZ      0.029100
     58 H19         7.7180    7.4580   -5.3880 ha        1 2SZ      0.158000
     59 H20         8.7970    9.5570   -6.1710 ha        1 2SZ      0.142000
     60 H21        10.5360   10.1310   -2.2420 ha        1 2SZ      0.142000
     61 H22         9.4670    8.0270   -1.4620 ha        1 2SZ      0.158000
     62 H23        11.5260   10.0470   -6.1950 ha        1 2SZ      0.181000
     63 H24        12.4030   14.3200   -5.8260 h4        1 2SZ      0.013100
     64 H25         7.7580   11.1150   -3.7030 h5        1 2SZ      0.099800
     65 H26        10.9250   15.0300   -2.4710 ha        1 2SZ      0.149000
     66 H27        10.0780   16.7390   -0.8930 ha        1 2SZ      0.146000
     67 H28         7.7980   16.6050    0.0650 ha        1 2SZ      0.152000
     68 H29         6.2610   14.7180   -0.5220 ha        1 2SZ      0.167000
     69 H30        13.9190   13.7960   -7.8790 hn        1 2SZ      0.453800
     70 H31        15.9950   13.0570   -8.0030 ho        1 2SZ      0.462000
     71 H402       14.4120   13.3280   -6.3330 hn        1 2SZ      0.453800
@<TRIPOS>BOND
     1    1    2 1   
     2    1   42 1   
     3    1   43 1   
     4    1   44 1   
     5    2    3 1   
     6    2    7 1   
     7    3    4 1   
     8    3   45 1   
     9    3   46 1   
    10    4    5 1   
    11    4   47 1   
    12    4   48 1   
    13    5    6 1   
    14    5    8 1   
    15    6    7 1   
    16    6   49 1   
    17    6   50 1   
    18    7   51 1   
    19    7   52 1   
    20    8    9 1   
    21    8   53 1   
    22    8   54 1   
    23    9   10 ar  
    24    9   14 ar  
    25   10   11 ar  
    26   10   55 1   
    27   11   12 ar  
    28   11   56 1   
    29   12   13 ar  
    30   12   15 1   
    31   13   14 ar  
    32   13   57 1   
    33   15   16 3   
    34   16   17 1   
    35   17   18 ar  
    36   17   22 ar  
    37   18   19 ar  
    38   18   58 1   
    39   19   20 ar  
    40   19   59 1   
    41   20   21 ar  
    42   20   23 1   
    43   21   22 ar  
    44   21   60 1   
    45   22   61 1   
    46   23   24 ar  
    47   23   28 ar  
    48   24   25 ar  
    49   24   62 1   
    50   25   26 ar  
    51   25   38 1   
    52   26   27 ar  
    53   26   63 1   
    54   27   28 ar  
    55   28   29 1   
    56   29   30 1   
    57   29   33 1   
    58   30   31 2   
    59   30   64 1   
    60   31   32 1   
    61   32   33 ar  
    62   32   37 ar  
    63   33   34 ar  
    64   34   35 ar  
    65   34   65 1   
    66   35   36 ar  
    67   35   66 1   
    68   36   37 ar  
    69   36   67 1   
    70   37   68 1   
    71   38   39 2   
    72   38   40 1   
    73   40   41 1   
    74   40   69 1   
    75   40   71 1   
    76   41   70 1   
@<TRIPOS>SUBSTRUCTURE
     1 2SZ         1 TEMP              0 ****  ****    0 ROOT
