@<TRIPOS>MOLECULE
2SZ
   71    76     1     0     0
SMALL
bcc


@<TRIPOS>ATOM
      1 C1          0.1420    0.3500    1.7500 c3        1 2SZ      0.157100
      2 N2          1.3510    0.2560    0.9650 n3        1 2SZ     -0.732600
      3 C3          2.4820   -0.2320    1.7380 c3        1 2SZ      0.168800
      4 C4          3.7800   -0.3230    0.9120 c3        1 2SZ      0.165300
      5 N5          4.0870    0.9170    0.2090 n3        1 2SZ     -0.733600
      6 C6          2.9530    1.4020   -0.5670 c3        1 2SZ      0.165300
      7 C7          1.6580    1.4930    0.2620 c3        1 2SZ      0.168800
      8 C8          5.2970    0.7920   -0.5950 c3        1 2SZ      0.110500
      9 C9          5.8660    2.1460   -0.9800 ca        1 2SZ      0.430600
     10 C10         6.2340    3.0440    0.0460 ca        1 2SZ     -0.226300
     11 C11         6.7950    4.2720   -0.2950 ca        1 2SZ     -0.065000
     12 C12         6.9810    4.5810   -1.6540 ca        1 2SZ     -0.128300
     13 C13         6.5780    3.6180   -2.6130 ca        1 2SZ      0.431200
     14 N14         6.0340    2.4340   -2.2950 nb        1 2SZ     -0.664000
     15 C15         7.5430    5.7990   -2.0600 cg        1 2SZ     -0.027000
     16 C16         8.0240    6.8410   -2.4120 ch        1 2SZ     -0.157000
     17 C17         8.5840    8.0590   -2.8270 ca        1 2SZ      0.082000
     18 C18         8.6640    8.3730   -4.1960 ca        1 2SZ     -0.111000
     19 C19         9.2230    9.5780   -4.6060 ca        1 2SZ     -0.110500
     20 C20         9.7050   10.4960   -3.6610 cp        1 2SZ     -0.104000
     21 C21         9.6270   10.1850   -2.2960 ca        1 2SZ     -0.110500
     22 C22         9.0720    8.9780   -1.8810 ca        1 2SZ     -0.111000
     23 C23        10.3450   11.7330   -4.1030 cp        1 2SZ     -0.168300
     24 C24        11.5070   11.6340   -4.8560 ca        1 2SZ      0.026000
     25 C25        12.2250   12.7950   -5.2260 ca        1 2SZ     -0.400900
     26 C26        11.7100   14.0400   -4.7900 ca        1 2SZ      0.493200
     27 N27        10.5920   14.1780   -4.0920 nb        1 2SZ     -0.699000
     28 C28         9.8570   13.0510   -3.7540 ca        1 2SZ      0.630800
     29 N29         8.6720   13.2330   -3.0710 na        1 2SZ     -0.214100
     30 C30         7.4930   12.3960   -3.1890 cc        1 2SZ      0.444700
     31 N31         6.4110   12.9370   -2.6630 nd        1 2SZ     -0.501100
     32 C32         6.8040   14.2100   -2.1600 ca        1 2SZ      0.070400
     33 C33         8.2140   14.4240   -2.4280 ca        1 2SZ     -0.068200
     34 C34         8.8500   15.5890   -2.0110 ca        1 2SZ     -0.103000
     35 C35         8.0740   16.5440   -1.3470 ca        1 2SZ     -0.108000
     36 C36         6.7140   16.3480   -1.0970 ca        1 2SZ     -0.126000
     37 C37         6.0600   15.1810   -1.4930 ca        1 2SZ     -0.055000
     38 C38        13.4010   12.6170   -6.0390 c         1 2SZ      0.618700
     39 O39        13.7550   11.7230   -6.7770 o         1 2SZ     -0.372100
     40 N40        14.4280   13.8160   -5.9300 ny        1 2SZ     -0.481300
     41 O41        15.6610   13.3030   -6.1280 oh        1 2SZ     -0.339300
     42 H1          0.2090    1.0990    2.5870 h1        1 2SZ      0.034367
     43 H2         -0.7040    0.6450    1.0750 h1        1 2SZ      0.034367
     44 H3         -0.0810   -0.6570    2.1910 h1        1 2SZ      0.034367
     45 H5          2.6760    0.4110    2.6470 h1        1 2SZ      0.038450
     46 H6          2.2320   -1.2700    2.0960 h1        1 2SZ      0.038450
     47 H7          3.6960   -1.1950    0.2010 h1        1 2SZ      0.041200
     48 H8          4.6250   -0.5350    1.6250 h1        1 2SZ      0.041200
     49 H10         3.2070    2.4360   -0.9320 h1        1 2SZ      0.041200
     50 H11         2.7590    0.7530   -1.4710 h1        1 2SZ      0.041200
     51 H12         0.8100    1.7040   -0.4490 h1        1 2SZ      0.038450
     52 H13         1.7410    2.3680    0.9710 h1        1 2SZ      0.038450
     53 H14         6.0840    0.2760    0.0270 h1        1 2SZ      0.058700
     54 H15         5.1250    0.1650   -1.5200 h1        1 2SZ      0.058700
     55 H16         6.0650    2.7710    1.0970 ha        1 2SZ      0.165000
     56 H17         7.0880    4.9900    0.4840 ha        1 2SZ      0.146000
     57 H18         6.7000    3.8140   -3.6940 h4        1 2SZ      0.029100
     58 H19         8.2830    7.6600   -4.9430 ha        1 2SZ      0.158000
     59 H20         9.2860    9.8130   -5.6800 ha        1 2SZ      0.142000
     60 H21        10.0070   10.8950   -1.5460 ha        1 2SZ      0.142000
     61 H22         9.0150    8.7390   -0.8080 ha        1 2SZ      0.158000
     62 H23        11.8820   10.6380   -5.1540 ha        1 2SZ      0.181000
     63 H24        12.1950   15.0030   -5.0410 h4        1 2SZ      0.013100
     64 H25         7.5500   11.4090   -3.6740 h5        1 2SZ      0.099800
     65 H26         9.9180   15.7730   -2.1830 ha        1 2SZ      0.149000
     66 H27         8.5550   17.4770   -1.0120 ha        1 2SZ      0.146000
     67 H28         6.1440   17.1300   -0.5700 ha        1 2SZ      0.152000
     68 H29         4.9900   15.0260   -1.2850 ha        1 2SZ      0.167000
     69 H30        14.1910   14.5190   -6.6460 hn        1 2SZ      0.453800
     70 H31        16.3050   14.0390   -6.2330 ho        1 2SZ      0.462000
     71 H402       14.3590   14.2360   -4.9890 hn        1 2SZ      0.453800
@<TRIPOS>BOND
     1    1    2 1   
     2    1   42 1   
     3    1   43 1   
     4    1   44 1   
     5    2    3 1   
     6    2    7 1   
     7    3    4 1   
     8    3   45 1   
     9    3   46 1   
    10    4    5 1   
    11    4   47 1   
    12    4   48 1   
    13    5    6 1   
    14    5    8 1   
    15    6    7 1   
    16    6   49 1   
    17    6   50 1   
    18    7   51 1   
    19    7   52 1   
    20    8    9 1   
    21    8   53 1   
    22    8   54 1   
    23    9   10 ar  
    24    9   14 ar  
    25   10   11 ar  
    26   10   55 1   
    27   11   12 ar  
    28   11   56 1   
    29   12   13 ar  
    30   12   15 1   
    31   13   14 ar  
    32   13   57 1   
    33   15   16 3   
    34   16   17 1   
    35   17   18 ar  
    36   17   22 ar  
    37   18   19 ar  
    38   18   58 1   
    39   19   20 ar  
    40   19   59 1   
    41   20   21 ar  
    42   20   23 1   
    43   21   22 ar  
    44   21   60 1   
    45   22   61 1   
    46   23   24 ar  
    47   23   28 ar  
    48   24   25 ar  
    49   24   62 1   
    50   25   26 ar  
    51   25   38 1   
    52   26   27 ar  
    53   26   63 1   
    54   27   28 ar  
    55   28   29 1   
    56   29   30 1   
    57   29   33 1   
    58   30   31 2   
    59   30   64 1   
    60   31   32 1   
    61   32   33 ar  
    62   32   37 ar  
    63   33   34 ar  
    64   34   35 ar  
    65   34   65 1   
    66   35   36 ar  
    67   35   66 1   
    68   36   37 ar  
    69   36   67 1   
    70   37   68 1   
    71   38   39 2   
    72   38   40 1   
    73   40   41 1   
    74   40   69 1   
    75   40   71 1   
    76   41   70 1   
@<TRIPOS>SUBSTRUCTURE
     1 2SZ         1 TEMP              0 ****  ****    0 ROOT
