@<TRIPOS>MOLECULE
2SZ
   70    75     1     0     0
SMALL
bcc


@<TRIPOS>ATOM
      1 C1         -0.2790    0.4330    0.6280 c3        1 2SZ      0.157100
      2 N2          1.1140    0.2760    0.2790 n3        1 2SZ     -0.732600
      3 C3          1.9420   -0.0580    1.4280 c3        1 2SZ      0.168800
      4 C4          3.4340   -0.2010    1.0740 c3        1 2SZ      0.165800
      5 N5          3.9510    0.9470    0.3400 n3        1 2SZ     -0.731600
      6 C6          3.1260    1.2710   -0.8170 c3        1 2SZ      0.165800
      7 C7          1.6340    1.4160   -0.4630 c3        1 2SZ      0.168800
      8 C8          5.3560    0.7730   -0.0090 c3        1 2SZ      0.114500
      9 C9          6.0040    2.0750   -0.4420 ca        1 2SZ      0.413600
     10 C10         6.0670    3.1390    0.4830 ca        1 2SZ     -0.225300
     11 C11         6.6950    4.3250    0.1110 ca        1 2SZ     -0.074000
     12 C12         7.2500    4.4280   -1.1760 ca        1 2SZ     -0.098300
     13 C13         7.1340    3.3070   -2.0360 ca        1 2SZ      0.420200
     14 N14         6.5280    2.1610   -1.6890 nb        1 2SZ     -0.666000
     15 C15         7.8960    5.5950   -1.6050 cg        1 2SZ     -0.084000
     16 C16         8.4500    6.5940   -1.9740 ch        1 2SZ     -0.107000
     17 C17         9.0980    7.7630   -2.4060 ca        1 2SZ      0.041000
     18 C18         9.5680    7.8680   -3.7270 ca        1 2SZ     -0.108000
     19 C19        10.2100    9.0260   -4.1510 ca        1 2SZ     -0.115500
     20 C20        10.3890   10.1030   -3.2710 cp        1 2SZ     -0.055000
     21 C21         9.9240    9.9980   -1.9530 ca        1 2SZ     -0.115500
     22 C22         9.2830    8.8400   -1.5230 ca        1 2SZ     -0.108000
     23 C23        11.1090   11.2940   -3.7170 cp        1 2SZ     -0.175300
     24 C24        12.4210   11.1470   -4.1830 ca        1 2SZ     -0.012000
     25 C25        13.1660   12.2710   -4.5550 ca        1 2SZ     -0.294900
     26 C26        12.5450   13.5340   -4.4600 ca        1 2SZ      0.462200
     27 N27        11.2870   13.7140   -4.0460 nb        1 2SZ     -0.694000
     28 C28        10.5520   12.6140   -3.6830 ca        1 2SZ      0.554800
     29 N29         9.2240   12.8150   -3.2620 na        1 2SZ     -0.221100
     30 C30         8.1100   12.0320   -3.7080 cc        1 2SZ      0.440700
     31 N31         6.9320   12.6000   -3.4700 nd        1 2SZ     -0.546100
     32 C32         7.2220   13.8550   -2.8750 ca        1 2SZ      0.064400
     33 C33         8.6620   14.0200   -2.7700 ca        1 2SZ     -0.053200
     34 C34         9.2130   15.1710   -2.2070 ca        1 2SZ     -0.108000
     35 C35         8.3320   16.1520   -1.7590 ca        1 2SZ     -0.118000
     36 C36         6.9430   16.0010   -1.8590 ca        1 2SZ     -0.145000
     37 C37         6.3710   14.8600   -2.4100 ca        1 2SZ     -0.071000
     38 C38        14.5490   12.0840   -5.0460 c         1 2SZ      0.610700
     39 O39        14.9210   11.0350   -5.5980 o         1 2SZ     -0.553100
     40 N40        15.4320   13.2110   -4.9760 n         1 2SZ     -0.344400
     41 O41        16.7260   12.9000   -5.0920 oh        1 2SZ     -0.434100
     42 H1         -0.4700    1.2920    1.3300 h1        1 2SZ      0.032367
     43 H2         -0.6370   -0.5110    1.1160 h1        1 2SZ      0.032367
     44 H3         -0.8690    0.6020   -0.3100 h1        1 2SZ      0.032367
     45 H5          1.8390    0.7060    2.2530 h1        1 2SZ      0.036950
     46 H6          1.5880   -1.0490    1.8290 h1        1 2SZ      0.036950
     47 H7          4.0090   -0.2830    2.0380 h1        1 2SZ      0.041200
     48 H8          3.5790   -1.1630    0.5000 h1        1 2SZ      0.041200
     49 H10         3.4840    2.2560   -1.2260 h1        1 2SZ      0.041200
     50 H11         3.2300    0.4970   -1.6320 h1        1 2SZ      0.041200
     51 H12         1.4870    2.3830    0.1020 h1        1 2SZ      0.036950
     52 H13         1.0580    1.4890   -1.4270 h1        1 2SZ      0.036950
     53 H14         5.4950   -0.0160   -0.8060 h1        1 2SZ      0.054200
     54 H15         5.9040    0.4260    0.9150 h1        1 2SZ      0.054200
     55 H16         5.6150    3.0260    1.4780 ha        1 2SZ      0.158000
     56 H17         6.7570    5.1710    0.8110 ha        1 2SZ      0.146000
     57 H18         7.5510    3.3390   -3.0590 h4        1 2SZ      0.029100
     58 H19         9.4280    7.0280   -4.4250 ha        1 2SZ      0.147000
     59 H20        10.5840    9.0980   -5.1840 ha        1 2SZ      0.146000
     60 H21        10.0660   10.8360   -1.2530 ha        1 2SZ      0.146000
     61 H22         8.9200    8.7660   -0.4870 ha        1 2SZ      0.147000
     62 H23        12.8730   10.1420   -4.2520 ha        1 2SZ      0.172000
     63 H24        13.0690   14.4650   -4.7530 h4        1 2SZ      0.041100
     64 H25         8.2680   11.0440   -4.1640 h5        1 2SZ      0.083800
     65 H26        10.2990   15.3090   -2.1220 ha        1 2SZ      0.150000
     66 H27         8.7410   17.0730   -1.3170 ha        1 2SZ      0.134000
     67 H28         6.2900   16.8070   -1.4900 ha        1 2SZ      0.135000
     68 H29         5.2800   14.7440   -2.4800 ha        1 2SZ      0.151000
     69 H30        15.3230   13.7310   -4.1110 hn        1 2SZ      0.298500
     70 H31        16.8590   12.6550   -6.0300 ho        1 2SZ      0.438000
@<TRIPOS>BOND
     1    1    2 1   
     2    1   42 1   
     3    1   43 1   
     4    1   44 1   
     5    2    3 1   
     6    2    7 1   
     7    3    4 1   
     8    3   45 1   
     9    3   46 1   
    10    4    5 1   
    11    4   47 1   
    12    4   48 1   
    13    5    6 1   
    14    5    8 1   
    15    6    7 1   
    16    6   49 1   
    17    6   50 1   
    18    7   51 1   
    19    7   52 1   
    20    8    9 1   
    21    8   53 1   
    22    8   54 1   
    23    9   10 ar  
    24    9   14 ar  
    25   10   11 ar  
    26   10   55 1   
    27   11   12 ar  
    28   11   56 1   
    29   12   13 ar  
    30   12   15 1   
    31   13   14 ar  
    32   13   57 1   
    33   15   16 3   
    34   16   17 1   
    35   17   18 ar  
    36   17   22 ar  
    37   18   19 ar  
    38   18   58 1   
    39   19   20 ar  
    40   19   59 1   
    41   20   21 ar  
    42   20   23 1   
    43   21   22 ar  
    44   21   60 1   
    45   22   61 1   
    46   23   24 ar  
    47   23   28 ar  
    48   24   25 ar  
    49   24   62 1   
    50   25   26 ar  
    51   25   38 1   
    52   26   27 ar  
    53   26   63 1   
    54   27   28 ar  
    55   28   29 1   
    56   29   30 1   
    57   29   33 1   
    58   30   31 2   
    59   30   64 1   
    60   31   32 1   
    61   32   33 ar  
    62   32   37 ar  
    63   33   34 ar  
    64   34   35 ar  
    65   34   65 1   
    66   35   36 ar  
    67   35   66 1   
    68   36   37 ar  
    69   36   67 1   
    70   37   68 1   
    71   38   39 2   
    72   38   40 1   
    73   40   41 1   
    74   40   69 1   
    75   41   70 1   
@<TRIPOS>SUBSTRUCTURE
     1 2SZ         1 TEMP              0 ****  ****    0 ROOT
