@<TRIPOS>MOLECULE
2T0
   28    23     1     0     0
SMALL
bcc


@<TRIPOS>ATOM
      1 C1          0.2300   -0.1840   -2.3810 c1        1 2T0      0.301000
      2 C2          1.4760   -0.8150   -2.3240 c1        1 2T0     -0.180500
      3 C3          2.0810   -1.0640   -1.0860 c1        1 2T0     -0.180500
      4 C4          1.4420   -0.6840    0.0890 c1        1 2T0     -0.281000
      5 C52         0.1820   -0.0460    0.0320 c1        1 2T0      0.025000
      6 C6         -0.4160    0.2000   -1.2000 c1        1 2T0     -0.276000
      7 P8         -0.7270    0.6530   -4.6460 p3        1 2T0      2.492000
      8 C9          0.0230   -0.0860    2.5660 c1        1 2T0     -0.407000
      9 C10        -0.5500    0.2640    1.2750 c1        1 2T0      0.035000
     10 S11        -1.0120    0.2470    3.6390 ss        1 2T0      0.390000
     11 C12        -2.2640    0.8270    2.9190 c1        1 2T0     -0.239000
     12 N13        -1.9960    0.8400    1.5120 n2        1 2T0     -0.110000
     13 N14        -3.5990    1.1530    3.3490 n2        1 2T0     -0.271000
     14 O18        -0.6470   -0.4300   -3.4770 os        1 2T0     -0.536000
     15 C20         1.4400   -0.5530    2.6520 c2        1 2T0     -0.070000
     16 C21         2.1760   -0.8010    1.4120 c3        1 2T0     -0.056000
     17 O26         0.5980    1.3770   -4.7570 os        1 2T0     -1.173000
     18 O27        -1.8190    1.6470   -4.3360 o         1 2T0     -1.172000
     19 O28        -1.0340   -0.0420   -5.9570 o         1 2T0     -1.172000
     20 H2          1.9180   -1.0770   -3.1350 ha        1 2T0      0.115500
     21 H3          2.9650   -1.4540   -1.0500 ha        1 2T0      0.115500
     22 H6         -1.2880    0.6410   -1.2410 ha        1 2T0      0.125000
     23 HN14       -3.7610    1.3530    4.2300 hn        1 2T0      0.152500
     24 HN1A       -4.2810    1.1950    2.7370 hn        1 2T0      0.152500
     25 H20         1.9380    0.1150    3.1590 ha        1 2T0      0.063000
     26 H7          1.4450   -1.3830    3.1680 ha        1 2T0      0.063000
     27 H21         2.5490   -1.7200    1.4650 hc        1 2T0      0.048500
     28 H9          2.9330   -0.1720    1.3860 hc        1 2T0      0.048500
@<TRIPOS>BOND
     1    1    6 1   
     2    1   14 1   
     3    2    3 1   
     4    2   20 1   
     5    3   21 1   
     6    4    5 1   
     7    4   16 1   
     8    6   22 1   
     9    7   14 1   
    10    7   18 1   
    11    7   19 1   
    12    8    9 1   
    13    8   10 1   
    14    9   12 1   
    15   10   11 1   
    16   11   12 1   
    17   13   23 1   
    18   13   24 1   
    19   15   16 1   
    20   15   25 1   
    21   15   26 1   
    22   16   27 1   
    23   16   28 1   
@<TRIPOS>SUBSTRUCTURE
     1 2T0         1 TEMP              0 ****  ****    0 ROOT
