@<TRIPOS>MOLECULE
2T0
   28    29     1     0     0
SMALL
bcc


@<TRIPOS>ATOM
      1 C1         -0.2070    0.6660    0.2040 ca        1 2T0      0.580700
      2 C2          1.2330    0.6100    0.1890 ca        1 2T0     -0.292000
      3 C3          1.9500    0.3780    1.3360 ca        1 2T0     -0.069000
      4 C4          1.3270    0.1900    2.5810 ca        1 2T0     -0.288300
      5 C52        -0.0860    0.2430    2.6280 ca        1 2T0     -0.082500
      6 C6         -0.8360    0.4700    1.4900 ca        1 2T0     -0.276000
      7 P8         -0.8890    1.2990   -3.1140 p4        1 2T0      1.582300
      8 C9          0.0720    0.1400    5.1130 cc        1 2T0     -0.209700
      9 C10        -0.7010    0.0770    3.9440 cd        1 2T0      0.470800
     10 S11        -0.8760   -0.0790    6.4830 ss        1 2T0     -0.194300
     11 C12        -2.2950   -0.2480    5.4840 cc        1 2T0      0.531300
     12 N13        -2.0560   -0.1460    4.1670 nd        1 2T0     -0.636000
     13 N14        -3.5400   -0.4800    6.1170 nh        1 2T0     -0.873500
     14 O18        -0.8930    0.8790   -0.8460 o         1 2T0     -0.815700
     15 C20         1.5180    0.3960    5.0780 c3        1 2T0      0.015900
     16 C21         2.1360   -0.1140    3.7830 c3        1 2T0      0.029900
     17 O26        -1.5650    2.6160   -3.0730 o         1 2T0     -0.852833
     18 O27         0.5850    1.2610   -3.2590 o         1 2T0     -0.852833
     19 O28        -1.6740    0.1170   -3.5390 o         1 2T0     -0.901633
     20 H2          1.7240    0.7620   -0.7840 ha        1 2T0      0.156000
     21 H3          3.0510    0.3380    1.2920 ha        1 2T0      0.075000
     22 H6         -1.9310    0.5150    1.5250 ha        1 2T0      0.125000
     23 HN14       -4.1630    0.2880    5.9300 hn        1 2T0      0.357300
     24 HN1A       -3.9600   -1.3180    5.7520 hn        1 2T0      0.357300
     25 H20         1.6940    1.5040    5.1610 hc        1 2T0      0.023700
     26 H7          2.0280   -0.0880    5.9540 hc        1 2T0      0.023700
     27 H21         2.2750   -1.2280    3.8690 hc        1 2T0      0.009200
     28 H9          3.1630    0.3330    3.6830 hc        1 2T0      0.009200
@<TRIPOS>BOND
     1    1    2 ar  
     2    1    6 ar  
     3    1   14 1   
     4    2    3 ar  
     5    2   20 1   
     6    3    4 ar  
     7    3   21 1   
     8    4    5 ar  
     9    4   16 1   
    10    5    6 ar  
    11    5    9 1   
    12    6   22 1   
    13    7   17 1   
    14    7   18 1   
    15    7   19 2   
    16    8    9 2   
    17    8   10 1   
    18    8   15 1   
    19    9   12 1   
    20   10   11 1   
    21   11   12 2   
    22   11   13 1   
    23   13   23 1   
    24   13   24 1   
    25   15   16 1   
    26   15   25 1   
    27   15   26 1   
    28   16   27 1   
    29   16   28 1   
@<TRIPOS>SUBSTRUCTURE
     1 2T0         1 TEMP              0 ****  ****    0 ROOT
