@<TRIPOS>MOLECULE
2T0
   28    29     1     0     0
SMALL
bcc


@<TRIPOS>ATOM
      1 C1         -0.2230    0.6920    0.2090 ca        1 2T0      0.580700
      2 C2          1.2180    0.6520    0.1850 ca        1 2T0     -0.292000
      3 C3          1.9440    0.4140    1.3260 ca        1 2T0     -0.069000
      4 C4          1.3290    0.2040    2.5710 ca        1 2T0     -0.288300
      5 C52        -0.0840    0.2400    2.6270 ca        1 2T0     -0.082500
      6 C6         -0.8420    0.4730    1.4950 ca        1 2T0     -0.276000
      7 P8         -0.9290    1.3570   -3.0980 p4        1 2T0      1.582300
      8 C9          0.0890    0.1080    5.1090 cc        1 2T0     -0.209700
      9 C10        -0.6900    0.0510    3.9440 cd        1 2T0      0.470800
     10 S11        -0.8490   -0.1370    6.4810 ss        1 2T0     -0.194300
     11 C12        -2.2720   -0.3100    5.4880 cc        1 2T0      0.531300
     12 N13        -2.0410   -0.1900    4.1710 nd        1 2T0     -0.636000
     13 N14        -3.5110   -0.5630    6.1250 nh        1 2T0     -0.873500
     14 O18        -0.9170    0.9090   -0.8350 o         1 2T0     -0.815700
     15 C20         1.5320    0.3810    5.0700 c3        1 2T0      0.015900
     16 C21         2.1490   -0.1050    3.7650 c3        1 2T0      0.029900
     17 O26        -1.6220    2.6640   -3.0370 o         1 2T0     -0.852833
     18 O27         0.5440    1.3400   -3.2510 o         1 2T0     -0.852833
     19 O28        -1.7020    0.1710   -3.5330 o         1 2T0     -0.901633
     20 H2          1.7020    0.8220   -0.7880 ha        1 2T0      0.156000
     21 H3          3.0440    0.3870    1.2750 ha        1 2T0      0.075000
     22 H6         -1.9380    0.5040    1.5370 ha        1 2T0      0.125000
     23 HN14       -4.1430    0.2000    5.9510 hn        1 2T0      0.357300
     24 HN1A       -3.9240   -1.4010    5.7520 hn        1 2T0      0.357300
     25 H20         1.6960    1.4900    5.1650 hc        1 2T0      0.023700
     26 H7          2.0520   -0.1080    5.9370 hc        1 2T0      0.023700
     27 H21         3.1700    0.3540    3.6650 hc        1 2T0      0.009200
     28 H9          2.3000   -1.2190    3.8370 hc        1 2T0      0.009200
@<TRIPOS>BOND
     1    1    2 ar  
     2    1    6 ar  
     3    1   14 1   
     4    2    3 ar  
     5    2   20 1   
     6    3    4 ar  
     7    3   21 1   
     8    4    5 ar  
     9    4   16 1   
    10    5    6 ar  
    11    5    9 1   
    12    6   22 1   
    13    7   17 1   
    14    7   18 1   
    15    7   19 2   
    16    8    9 2   
    17    8   10 1   
    18    8   15 1   
    19    9   12 1   
    20   10   11 1   
    21   11   12 2   
    22   11   13 1   
    23   13   23 1   
    24   13   24 1   
    25   15   16 1   
    26   15   25 1   
    27   15   26 1   
    28   16   27 1   
    29   16   28 1   
@<TRIPOS>SUBSTRUCTURE
     1 2T0         1 TEMP              0 ****  ****    0 ROOT
