@<TRIPOS>MOLECULE
2T0
   28    29     1     0     0
SMALL
bcc


@<TRIPOS>ATOM
      1 C1          1.6330    0.2400    0.0680 ca        1 2T0      0.580700
      2 C2          1.7010    1.6780   -0.0120 ca        1 2T0     -0.292000
      3 C3          0.5630    2.4470   -0.0120 ca        1 2T0     -0.069000
      4 C4         -0.7200    1.8810    0.0600 ca        1 2T0     -0.288300
      5 C52        -0.8190    0.4720    0.1360 ca        1 2T0     -0.082500
      6 C6          0.3080   -0.3280    0.1420 ca        1 2T0     -0.276000
      7 P8          4.9750   -0.5940   -0.0280 p4        1 2T0      1.582300
      8 C9         -3.2860    0.7100   -0.1230 cc        1 2T0     -0.209700
      9 C10        -2.1700   -0.0860    0.1760 cd        1 2T0      0.470800
     10 S11        -4.7110   -0.1730   -0.0080 ss        1 2T0     -0.194300
     11 C12        -3.8050   -1.5950    0.4340 cc        1 2T0      0.531300
     12 N13        -2.4780   -1.4050    0.4940 nd        1 2T0     -0.636000
     13 N14        -4.5150   -2.7920    0.6920 nh        1 2T0     -0.873500
     14 O18         2.6720   -0.4920    0.0710 o         1 2T0     -0.815700
     15 C20        -3.1560    2.1220   -0.5090 c3        1 2T0      0.015900
     16 C21        -1.9170    2.7510    0.1150 c3        1 2T0      0.029900
     17 O26         5.0850   -1.3990   -1.2660 o         1 2T0     -0.852833
     18 O27         5.1750    0.8710   -0.1140 o         1 2T0     -0.852833
     19 O28         5.2020   -1.2670    1.2720 o         1 2T0     -0.901633
     20 H2          2.7050    2.1240   -0.0740 ha        1 2T0      0.156000
     21 H3          0.6480    3.5440   -0.0710 ha        1 2T0      0.075000
     22 H6          0.2330   -1.4210    0.1990 ha        1 2T0      0.125000
     23 HN14       -4.2520   -3.4940    0.0210 hn        1 2T0      0.357300
     24 HN1A       -4.2850   -3.1360    1.6090 hn        1 2T0      0.357300
     25 H20        -3.0800    2.1880   -1.6300 hc        1 2T0      0.023700
     26 H7         -4.0680    2.7020   -0.2020 hc        1 2T0      0.023700
     27 H21        -2.1480    3.0030    1.1880 hc        1 2T0      0.009200
     28 H9         -1.7150    3.7240   -0.4100 hc        1 2T0      0.009200
@<TRIPOS>BOND
     1    1    2 ar  
     2    1    6 ar  
     3    1   14 1   
     4    2    3 ar  
     5    2   20 1   
     6    3    4 ar  
     7    3   21 1   
     8    4    5 ar  
     9    4   16 1   
    10    5    6 ar  
    11    5    9 1   
    12    6   22 1   
    13    7   17 1   
    14    7   18 1   
    15    7   19 2   
    16    8    9 2   
    17    8   10 1   
    18    8   15 1   
    19    9   12 1   
    20   10   11 1   
    21   11   12 2   
    22   11   13 1   
    23   13   23 1   
    24   13   24 1   
    25   15   16 1   
    26   15   25 1   
    27   15   26 1   
    28   16   27 1   
    29   16   28 1   
@<TRIPOS>SUBSTRUCTURE
     1 2T0         1 TEMP              0 ****  ****    0 ROOT
