@<TRIPOS>MOLECULE
2T0
   28    29     1     0     0
SMALL
bcc


@<TRIPOS>ATOM
      1 C1         -0.2130    0.6550    0.2030 ca        1 2T0      0.580700
      2 C2          1.2280    0.6050    0.1850 ca        1 2T0     -0.292000
      3 C3          1.9480    0.3820    1.3330 ca        1 2T0     -0.069000
      4 C4          1.3280    0.1960    2.5790 ca        1 2T0     -0.288300
      5 C52        -0.0850    0.2430    2.6290 ca        1 2T0     -0.082500
      6 C6         -0.8380    0.4630    1.4900 ca        1 2T0     -0.276000
      7 P8         -0.9020    1.2700   -3.1170 p4        1 2T0      1.582300
      8 C9          0.0780    0.1520    5.1140 cc        1 2T0     -0.209700
      9 C10        -0.6970    0.0810    3.9460 cd        1 2T0      0.470800
     10 S11        -0.8670   -0.0640    6.4860 ss        1 2T0     -0.194300
     11 C12        -2.2870   -0.2440    5.4900 cc        1 2T0      0.531300
     12 N13        -2.0510   -0.1470    4.1730 nd        1 2T0     -0.636000
     13 N14        -3.5300   -0.4770    6.1280 nv        1 2T0     -0.873500
     14 O18        -0.9010    0.8600   -0.8470 o         1 2T0     -0.815700
     15 C20         1.5230    0.4140    5.0750 c3        1 2T0      0.015900
     16 C21         2.1410   -0.0990    3.7810 c3        1 2T0      0.029900
     17 O26        -1.5840    2.5840   -3.0800 o         1 2T0     -0.852833
     18 O27         0.5710    1.2390   -3.2640 o         1 2T0     -0.852833
     19 O28        -1.6830    0.0830   -3.5350 o         1 2T0     -0.901633
     20 H2          1.7170    0.7550   -0.7890 ha        1 2T0      0.156000
     21 H3          3.0490    0.3450    1.2860 ha        1 2T0      0.075000
     22 H6         -1.9330    0.5020    1.5280 ha        1 2T0      0.125000
     23 HN14       -3.9480   -1.3190    5.7670 hn        1 2T0      0.357300
     24 HN1A       -4.1570    0.2870    5.9380 hn        1 2T0      0.357300
     25 H20         2.0360   -0.0640    5.9520 hc        1 2T0      0.023700
     26 H7          1.6940    1.5240    5.1520 hc        1 2T0      0.023700
     27 H21         2.2840   -1.2120    3.8720 hc        1 2T0      0.009200
     28 H9          3.1650    0.3520    3.6770 hc        1 2T0      0.009200
@<TRIPOS>BOND
     1    1    2 ar  
     2    1    6 ar  
     3    1   14 1   
     4    2    3 ar  
     5    2   20 1   
     6    3    4 ar  
     7    3   21 1   
     8    4    5 ar  
     9    4   16 1   
    10    5    6 ar  
    11    5    9 1   
    12    6   22 1   
    13    7   17 1   
    14    7   18 1   
    15    7   19 2   
    16    8    9 2   
    17    8   10 1   
    18    8   15 1   
    19    9   12 1   
    20   10   11 1   
    21   11   12 2   
    22   11   13 1   
    23   13   23 1   
    24   13   24 1   
    25   15   16 1   
    26   15   25 1   
    27   15   26 1   
    28   16   27 1   
    29   16   28 1   
@<TRIPOS>SUBSTRUCTURE
     1 2T0         1 TEMP              0 ****  ****    0 ROOT
