@<TRIPOS>MOLECULE
2T1
   46    44     1     0     0
SMALL
bcc


@<TRIPOS>ATOM
      1 N1          0.2210   -0.0930   -1.0630 n         1 2T1     -0.285000
      2 N3         -2.0240    0.7830   -1.8810 n         1 2T1     -0.291000
      3 C4          2.8740   -1.9890    3.2620 c1        1 2T1     -0.162000
      4 C5          3.2950   -1.8310    4.5750 c1        1 2T1     -0.120500
      5 C6          2.8820   -0.7630    5.2910 c1        1 2T1     -0.120500
      6 C7          1.6250   -1.2100    1.2000 c3        1 2T1     -0.086000
      7 C8          0.1230   -1.2230    1.1170 c3        1 2T1     -0.181500
      8 C10         1.7100   -0.0620   -0.9940 c3        1 2T1     -0.062000
      9 C13        -2.7790    1.7140   -2.6370 c2        1 2T1      0.067000
     10 C15        -3.5620    1.2710   -3.7060 c1        1 2T1     -0.141000
     11 C17        -2.8320    3.0600   -2.2340 c2        1 2T1     -0.163000
     12 C21        -3.4900   -0.1310   -4.1370 c1        1 2T1      0.362000
     13 O3         -2.6210   -0.4770   -4.9140 o         1 2T1     -0.571000
     14 O2         -4.4610   -0.9420   -3.8550 o         1 2T1     -0.571000
     15 C16        -4.3950    2.1610   -4.3720 c2        1 2T1     -0.093000
     16 C19        -4.4510    3.5160   -3.9690 c1        1 2T1     -0.177000
     17 C18        -3.6670    3.9550   -2.9010 c1        1 2T1     -0.138000
     18 C14        -0.5700    0.8960   -1.8290 c2        1 2T1      0.364000
     19 O1          0.0270    1.8350   -2.4710 o         1 2T1     -0.403000
     20 C11         2.2160   -0.0970    0.4270 c3        1 2T1     -0.181500
     21 C9         -0.3780   -1.1770   -0.3090 c3        1 2T1     -0.062000
     22 C3          2.0510   -1.0730    2.7040 c2        1 2T1      0.005000
     23 C2          1.6340    0.0120    3.4380 c2        1 2T1     -0.129000
     24 C1          2.0460    0.1660    4.7200 c1        1 2T1     -0.099000
     25 C12         3.3670   -3.2170    2.4230 c3        1 2T1      0.468000
     26 F1          3.9560   -2.7740    1.2790 f         1 2T1     -0.171333
     27 F3          4.2430   -3.9090    3.1320 f         1 2T1     -0.171333
     28 F2          2.2520   -4.0570    2.0960 f         1 2T1     -0.171333
     29 HN3        -2.4370    0.0920   -1.4720 hn        1 2T1      0.263000
     30 H5          3.9140   -2.5180    4.9970 ha        1 2T1      0.138000
     31 H6          3.1800   -0.6480    6.1990 ha        1 2T1      0.138000
     32 H7          1.9610   -2.0380    0.8560 hc        1 2T1      0.099000
     33 H8         -0.2000   -2.0220    1.5340 hc        1 2T1      0.093750
     34 H8A        -0.2290   -0.4420    1.6000 hc        1 2T1      0.093750
     35 H10         2.0460   -0.8110   -1.4510 h1        1 2T1      0.114500
     36 H10A        2.0460    0.7670   -1.4400 h1        1 2T1      0.114500
     37 H17        -2.3120    3.3520   -1.5240 ha        1 2T1      0.151000
     38 H16        -4.9330    1.8560   -5.1070 ha        1 2T1      0.154000
     39 H19        -5.0640    4.1720   -4.4610 ha        1 2T1      0.108000
     40 H18        -3.7020    4.8420   -2.6340 ha        1 2T1      0.107000
     41 H11         3.2060   -0.1970    0.4180 hc        1 2T1      0.093750
     42 H11A        1.9740    0.7950    0.8910 hc        1 2T1      0.093750
     43 H9         -0.1580   -2.0540   -0.7650 h1        1 2T1      0.114500
     44 H9A        -1.3990   -1.0530   -0.2960 h1        1 2T1      0.114500
     45 H2          1.0550    0.6540    3.0460 ha        1 2T1      0.158000
     46 H1          1.7600    0.9050    5.2160 ha        1 2T1      0.137000
@<TRIPOS>BOND
     1    1    8 1   
     2    1   18 1   
     3    1   21 1   
     4    2    9 1   
     5    2   18 1   
     6    2   29 1   
     7    3   22 1   
     8    3   25 1   
     9    4    5 1   
    10    4   30 1   
    11    5   31 1   
    12    6    7 1   
    13    6   20 1   
    14    6   22 1   
    15    6   32 1   
    16    7   21 1   
    17    7   33 1   
    18    7   34 1   
    19    8   20 1   
    20    8   35 1   
    21    8   36 1   
    22    9   10 1   
    23    9   11 1   
    24   10   15 1   
    25   11   17 1   
    26   11   37 1   
    27   12   13 1   
    28   12   14 1   
    29   15   16 1   
    30   15   38 1   
    31   16   39 1   
    32   17   40 1   
    33   18   19 1   
    34   20   41 1   
    35   20   42 1   
    36   21   43 1   
    37   21   44 1   
    38   22   23 1   
    39   23   24 1   
    40   23   45 1   
    41   24   46 1   
    42   25   26 1   
    43   25   27 1   
    44   25   28 1   
@<TRIPOS>SUBSTRUCTURE
     1 2T1         1 TEMP              0 ****  ****    0 ROOT
