@<TRIPOS>MOLECULE
2T1
   47    48     1     0     0
SMALL
bcc


@<TRIPOS>ATOM
      1 N1          0.8540   -0.6540   -0.8030 n         1 2T1     -0.337000
      2 N3         -1.2740    0.4950   -1.0820 n         1 2T1     -0.336000
      3 C4          1.8660   -1.8600    4.3400 c2        1 2T1     -0.213000
      4 C5          1.8130   -2.2310    5.8350 c3        1 2T1      0.028000
      5 C6          1.1150   -1.1010    6.3950 c1        1 2T1     -0.173000
      6 C7          1.4310   -0.4340    2.3040 c3        1 2T1     -0.179000
      7 C8          0.1320   -0.8610    1.6190 c3        1 2T1     -0.199000
      8 C10         2.2720   -0.6760   -1.0640 c3        1 2T1     -0.076000
      9 C13        -2.0920    1.5690   -1.4030 c2        1 2T1      0.195000
     10 C15        -3.5430    1.3610   -1.2480 c2        1 2T1     -0.244000
     11 C17        -1.6530    2.8220   -1.8150 c2        1 2T1     -0.269000
     12 C21        -4.0570    0.0270   -0.8760 c2        1 2T1      0.327000
     13 O3         -4.7270   -0.2690    0.1120 o         1 2T1     -0.280000
     14 O2         -3.7610   -1.0440   -1.6760 oh        1 2T1     -0.297000
     15 C16        -4.4150    2.3830   -1.4290 c2        1 2T1     -0.023000
     16 C19        -3.9540    3.7330   -1.8100 c3        1 2T1     -0.213000
     17 C18        -2.5200    3.9060   -2.0010 c1        1 2T1     -0.099000
     18 C14         0.1200    0.4210   -1.3410 c2        1 2T1      0.400000
     19 O1          0.6850    1.2540   -2.0800 o         1 2T1     -0.348000
     20 C11         1.8390    0.9530    2.0830 c1        1 2T1     -0.024000
     21 C9          0.3540   -1.5010    0.2470 c3        1 2T1     -0.036000
     22 C3          1.3590   -0.7360    3.7750 c2        1 2T1      0.004000
     23 C2          0.6470    0.4010    4.5400 c3        1 2T1      0.004000
     24 C1          0.6620   -0.0890    5.8950 c1        1 2T1     -0.173000
     25 F1          1.8610   -3.4530    2.4820 f         1 2T1     -0.167333
     26 F3          3.7530   -2.5010    2.9240 f         1 2T1     -0.167333
     27 F2          2.9780   -4.0350    4.2370 f         1 2T1     -0.167333
     28 HN3        -3.3720   -0.7410   -2.5090 ho        1 2T1      0.237000
     29 H5          1.2660   -3.2020    5.9670 hc        1 2T1      0.125500
     30 H6          2.8550   -2.3500    6.2340 hc        1 2T1      0.125500
     31 H7         -0.3840   -1.6340    2.2510 hc        1 2T1      0.105000
     32 H8          2.3020   -1.0180    1.8490 hc        1 2T1      0.164000
     33 H8A        -0.5530    0.0220    1.5460 hc        1 2T1      0.105000
     34 H10         2.6210   -1.7420   -1.0930 h1        1 2T1      0.092667
     35 H10A        2.4890   -0.1900   -2.0540 h1        1 2T1      0.092667
     36 H17        -0.5790    3.0100   -1.9930 ha        1 2T1      0.188000
     37 H16        -4.4710    4.0580   -2.7620 hc        1 2T1      0.170000
     38 H19        -5.5000    2.2230   -1.3030 ha        1 2T1      0.148000
     39 H18        -4.2770    4.4750   -1.0170 hc        1 2T1      0.170000
     40 H11         2.8360   -0.1250   -0.2620 h1        1 2T1      0.092667
     41 H11A        1.5550    1.3850    1.1090 ha        1 2T1      0.056000
     42 H9          1.0810   -2.3580    0.3780 h1        1 2T1      0.107500
     43 H9A        -0.6230   -1.9620   -0.0840 h1        1 2T1      0.107500
     44 H2         -0.3860    0.5420    4.1280 hc        1 2T1      0.136000
     45 H1          1.2320    1.3530    4.4030 hc        1 2T1      0.136000
     46 H32        -1.7080   -0.2940   -0.6490 hn        1 2T1      0.242000
     47 C12         2.5910   -2.9270    3.5240 c3        1 2T1      0.462000
@<TRIPOS>BOND
     1    1    8 1   
     2    1   18 1   
     3    1   21 1   
     4    2    9 1   
     5    2   18 1   
     6    2   46 1   
     7    3    4 1   
     8    3   22 1   
     9    3   47 1   
    10    4    5 1   
    11    4   29 1   
    12    4   30 1   
    13    5   24 1   
    14    6    7 1   
    15    6   20 1   
    16    6   22 1   
    17    6   32 1   
    18    7   21 1   
    19    7   31 1   
    20    7   33 1   
    21    8   34 1   
    22    8   35 1   
    23    8   40 1   
    24    9   10 1   
    25    9   11 1   
    26   10   12 1   
    27   10   15 1   
    28   11   17 1   
    29   11   36 1   
    30   12   13 1   
    31   12   14 1   
    32   14   28 1   
    33   15   16 1   
    34   15   38 1   
    35   16   17 1   
    36   16   37 1   
    37   16   39 1   
    38   18   19 1   
    39   20   41 1   
    40   21   42 1   
    41   21   43 1   
    42   22   23 1   
    43   23   24 1   
    44   23   44 1   
    45   23   45 1   
    46   25   47 1   
    47   26   47 1   
    48   27   47 1   
@<TRIPOS>SUBSTRUCTURE
     1 2T1         1 TEMP              0 ****  ****    0 ROOT
