@<TRIPOS>MOLECULE
2T1
   46    48     1     0     0
SMALL
bcc


@<TRIPOS>ATOM
      1 N1          0.6640   -0.0670    1.7110 n         1 2T1     -0.426800
      2 N3          2.3530    0.7510    0.1050 n         1 2T1     -0.437100
      3 C4         -4.3380    0.0600   -0.5370 ca        1 2T1     -0.169300
      4 C5         -5.2160    0.5610   -1.5060 ca        1 2T1     -0.094000
      5 C6         -4.7630    1.4490   -2.4750 ca        1 2T1     -0.147000
      6 C7         -1.9970   -0.0700    0.4670 c3        1 2T1     -0.039400
      7 C8         -0.7980   -0.7180   -0.2190 c3        1 2T1     -0.102900
      8 C10        -0.4620    0.5810    2.3570 c3        1 2T1      0.054000
      9 C13         3.7510    0.8830   -0.0690 ca        1 2T1      0.059600
     10 C15         4.4250    0.0560   -1.0070 ca        1 2T1     -0.161600
     11 C17         4.4770    1.8770    0.6230 ca        1 2T1     -0.163000
     12 C21         3.7640   -1.0650   -1.7970 c         1 2T1      0.913200
     13 O3          4.3570   -1.4860   -2.8260 o         1 2T1     -0.836300
     14 O2          2.6560   -1.5480   -1.4010 o         1 2T1     -0.836300
     15 C16         5.7880    0.2690   -1.2320 ca        1 2T1     -0.093000
     16 C19         6.4960    1.2520   -0.5470 ca        1 2T1     -0.177000
     17 C18         5.8360    2.0500    0.3840 ca        1 2T1     -0.138000
     18 C14         1.7580    0.8000    1.3780 c         1 2T1      0.737100
     19 O1          2.1230    1.6260    2.2510 o         1 2T1     -0.642100
     20 C11        -1.5530    1.0580    1.3930 c3        1 2T1     -0.102900
     21 C9          0.2560   -1.1270    0.8110 c3        1 2T1      0.054000
     22 C3         -2.9880    0.4400   -0.5340 ca        1 2T1     -0.002300
     23 C2         -2.5510    1.3480   -1.5150 ca        1 2T1     -0.129000
     24 C1         -3.4240    1.8450   -2.4760 ca        1 2T1     -0.099000
     25 F1         -4.3780   -2.1670    0.4840 f         1 2T1     -0.242633
     26 F3         -4.7690   -0.4920    1.8080 f         1 2T1     -0.242633
     27 F2         -6.2640   -1.1280    0.3930 f         1 2T1     -0.242633
     28 HN3         1.9590    0.0780   -0.5420 hn        1 2T1      0.349500
     29 H5         -6.2730    0.2490   -1.5010 ha        1 2T1      0.143000
     30 H6         -5.4560    1.8360   -3.2350 ha        1 2T1      0.133000
     31 H7         -2.4820   -0.8620    1.1090 hc        1 2T1      0.059700
     32 H8         -1.1290   -1.6330   -0.7740 hc        1 2T1      0.054450
     33 H8A        -0.3430   -0.0180   -0.9670 hc        1 2T1      0.054450
     34 H10        -0.9110   -0.1720    3.0670 h1        1 2T1      0.075200
     35 H10A       -0.0900    1.4560    2.9600 h1        1 2T1      0.075200
     36 H17         3.9700    2.5110    1.3670 ha        1 2T1      0.151000
     37 H16         6.2880   -0.3710   -1.9790 ha        1 2T1      0.154000
     38 H19         7.5680    1.3950   -0.7380 ha        1 2T1      0.108000
     39 H18         6.3870    2.8250    0.9360 ha        1 2T1      0.107000
     40 H11        -1.1720    1.9200    0.7860 hc        1 2T1      0.054450
     41 H11A       -2.4290    1.4180    1.9920 hc        1 2T1      0.054450
     42 H9          1.1470   -1.5780    0.2760 h1        1 2T1      0.075200
     43 H9A        -0.1830   -1.9370    1.4650 h1        1 2T1      0.075200
     44 H2         -1.4950    1.6650   -1.5210 ha        1 2T1      0.158000
     45 H1         -3.0570    2.5490   -3.2390 ha        1 2T1      0.137000
     46 C12        -4.9100   -0.9000    0.5020 c3        1 2T1      0.689200
@<TRIPOS>BOND
     1    1    8 1   
     2    1   18 1   
     3    1   21 1   
     4    2    9 1   
     5    2   18 1   
     6    2   28 1   
     7    3    4 ar  
     8    3   22 ar  
     9    3   46 1   
    10    4    5 ar  
    11    4   29 1   
    12    5   24 ar  
    13    5   30 1   
    14    6    7 1   
    15    6   20 1   
    16    6   22 1   
    17    6   31 1   
    18    7   21 1   
    19    7   32 1   
    20    7   33 1   
    21    8   20 1   
    22    8   34 1   
    23    8   35 1   
    24    9   10 ar  
    25    9   11 ar  
    26   10   12 1   
    27   10   15 ar  
    28   11   17 ar  
    29   11   36 1   
    30   12   13 1   
    31   12   14 1   
    32   15   16 ar  
    33   15   37 1   
    34   16   17 ar  
    35   16   38 1   
    36   17   39 1   
    37   18   19 2   
    38   20   40 1   
    39   20   41 1   
    40   21   42 1   
    41   21   43 1   
    42   22   23 ar  
    43   23   24 ar  
    44   23   44 1   
    45   24   45 1   
    46   25   46 1   
    47   26   46 1   
    48   27   46 1   
@<TRIPOS>SUBSTRUCTURE
     1 2T1         1 TEMP              0 ****  ****    0 ROOT
