@<TRIPOS>MOLECULE
2T1
   46    46     1     0     0
SMALL
bcc


@<TRIPOS>ATOM
      1 N1         -0.4440    0.3060    0.4370 n         1 2T1     -0.348000
      2 N3         -2.1150    0.4130   -1.3230 n         1 2T1     -0.297000
      3 C4          1.6600   -2.5230    4.1360 c3        1 2T1     -0.092000
      4 C5          1.1270   -2.8050    5.5190 c2        1 2T1     -0.123000
      5 C6          1.8830   -2.2640    6.4590 c1        1 2T1     -0.139000
      6 C7          3.4190   -0.2910    0.6430 cu        1 2T1     -0.202500
      7 C8         -0.8880   -0.3020    2.7260 c2        1 2T1     -0.359000
      8 C10         2.9230    0.6800   -0.1000 cu        1 2T1     -0.202500
      9 C13        -2.8370    1.2180   -2.1940 c2        1 2T1      0.226000
     10 C15        -4.3030    1.1220   -2.1270 c2        1 2T1     -0.210000
     11 C17        -2.2500    2.0640   -3.1420 c2        1 2T1     -0.316000
     12 C21        -5.0380    0.3480   -1.0380 c2        1 2T1      0.365000
     13 O3         -6.2440    0.0530   -1.2490 o         1 2T1     -0.566000
     14 O2         -4.4350    0.0480    0.0430 o         1 2T1     -0.566000
     15 C16        -5.0440    1.7900   -3.0410 c2        1 2T1     -0.091000
     16 C19        -4.4480    2.6190   -4.1090 c3        1 2T1     -0.192000
     17 C18        -2.9900    2.7440   -4.1030 c1        1 2T1     -0.173000
     18 C14        -0.8170    0.6940   -0.8680 c2        1 2T1      0.408000
     19 O1          0.0830    1.2100   -1.5720 o         1 2T1     -0.395000
     20 C11         4.0770    1.0370    0.7740 cx        1 2T1     -0.177000
     21 C9         -1.3070   -0.0150    1.4780 c2        1 2T1     -0.004000
     22 C3          2.4200   -1.2190    4.1170 c2        1 2T1     -0.163000
     23 C2          2.8650   -0.5850    5.2270 c2        1 2T1     -0.112000
     24 C1          2.8450   -1.3470    6.4850 c2        1 2T1     -0.093000
     25 F1          2.9390   -3.3720    2.2190 f         1 2T1     -0.168667
     26 F3          3.6260   -4.0430    4.1610 f         1 2T1     -0.168667
     27 F2          1.7880   -4.8350    3.3310 f         1 2T1     -0.168667
     28 HN3        -2.6900   -0.1740   -0.7230 hn        1 2T1      0.289000
     29 H5          0.7420   -2.3940    3.4820 hc        1 2T1      0.173000
     30 H6          0.1430   -3.2680    5.6280 ha        1 2T1      0.167000
     31 H7          2.5910   -0.8070    3.1080 ha        1 2T1      0.159000
     32 H8          3.4400   -1.3100    0.9710 ha        1 2T1      0.209000
     33 H8A        -1.6150   -0.5500    3.5060 ha        1 2T1      0.111500
     34 H10         0.5260    0.4240    0.6420 hn        1 2T1      0.234000
     35 H10A        2.2230    1.0570   -0.8260 ha        1 2T1      0.209000
     36 H17        -1.1540    2.1860   -3.1620 ha        1 2T1      0.156000
     37 H16        -4.7410    2.2000   -5.1150 hc        1 2T1      0.131000
     38 H19        -6.1460    1.7240   -2.9870 ha        1 2T1      0.149000
     39 H18        -4.8810    3.6600   -4.0590 hc        1 2T1      0.131000
     40 H11         3.9230    1.6510    1.6810 hc        1 2T1      0.082500
     41 H11A        5.0770    1.2140    0.3360 hc        1 2T1      0.082500
     42 H9          0.1620   -0.2890    3.0400 ha        1 2T1      0.111500
     43 H9A        -2.3980   -0.0220    1.2410 h4        1 2T1      0.205000
     44 H2          3.3500    0.3980    5.2000 ha        1 2T1      0.147000
     45 H1          3.6370   -1.2220    7.2270 ha        1 2T1      0.160000
     46 C12         2.4940   -3.6680    3.4850 c3        1 2T1      0.420000
@<TRIPOS>BOND
     1    1   18 1   
     2    1   21 1   
     3    1   34 1   
     4    2    9 1   
     5    2   18 1   
     6    2   28 1   
     7    3    4 1   
     8    3   22 1   
     9    3   29 1   
    10    3   46 1   
    11    4    5 1   
    12    4   30 1   
    13    5   24 1   
    14    6    8 1   
    15    6   20 1   
    16    6   32 1   
    17    7   21 1   
    18    7   33 1   
    19    7   42 1   
    20    8   20 1   
    21    8   35 1   
    22    9   10 1   
    23    9   11 1   
    24   10   12 1   
    25   10   15 1   
    26   11   17 1   
    27   11   36 1   
    28   12   13 1   
    29   12   14 1   
    30   15   16 1   
    31   15   38 1   
    32   16   17 1   
    33   16   37 1   
    34   16   39 1   
    35   18   19 1   
    36   20   40 1   
    37   20   41 1   
    38   21   43 1   
    39   22   23 1   
    40   22   31 1   
    41   23   24 1   
    42   23   44 1   
    43   24   45 1   
    44   25   46 1   
    45   26   46 1   
    46   27   46 1   
@<TRIPOS>SUBSTRUCTURE
     1 2T1         1 TEMP              0 ****  ****    0 ROOT
