@<TRIPOS>MOLECULE
2T1
   46    47     1     0     0
SMALL
bcc


@<TRIPOS>ATOM
      1 N1          0.0840   -1.1660   -0.7440 n         1 2T1     -0.302000
      2 N3         -1.6290    0.4950   -1.2240 ns        1 2T1     -0.299000
      3 C4          2.5800   -1.6470    4.2690 c2        1 2T1     -0.183000
      4 C5          2.8220   -0.9940    5.5810 c3        1 2T1     -0.192000
      5 C6          2.0490    0.1970    5.8990 c1        1 2T1     -0.075000
      6 C7          1.3610   -1.7610    2.0650 c3        1 2T1     -0.152000
      7 C8         -1.8980   -2.1340    0.3820 c2        1 2T1     -0.232000
      8 C10         1.4770   -1.4190   -0.4400 c3        1 2T1     -0.005000
      9 C13        -2.1320    1.7630   -1.4820 c2        1 2T1      0.232000
     10 C15        -3.5730    1.9630   -1.2660 c2        1 2T1     -0.208000
     11 C17        -1.3700    2.8250   -1.9850 c2        1 2T1     -0.316000
     12 C21        -4.4720    0.9110   -0.6270 c2        1 2T1      0.362000
     13 O3         -5.7060    0.9700   -0.8750 o         1 2T1     -0.568000
     14 O2         -3.9630    0.0370    0.1410 o         1 2T1     -0.568000
     15 C16        -4.1340    3.1450   -1.6130 c2        1 2T1     -0.094000
     16 C19        -3.3640    4.2580   -2.2040 c3        1 2T1     -0.189000
     17 C18        -1.9270    4.0390   -2.3680 c1        1 2T1     -0.179000
     18 C14        -0.2800    0.1850   -0.9980 c2        1 2T1      0.397000
     19 O1          0.6450    1.0310   -1.0690 o         1 2T1     -0.394000
     20 C11         1.9580   -0.9480    0.9340 c3        1 2T1     -0.184000
     21 C9         -0.8280   -2.1890   -0.4210 c2        1 2T1     -0.080000
     22 C3          1.6700   -1.1550    3.3910 c2        1 2T1     -0.025000
     23 C2          0.9230    0.0420    3.7440 c2        1 2T1     -0.020000
     24 C1          1.1140    0.6690    4.9360 c2        1 2T1     -0.216000
     25 F1          2.6950   -4.0590    3.8850 f         1 2T1     -0.169333
     26 F3          4.1590   -2.8500    2.8360 f         1 2T1     -0.169333
     27 F2          4.3460   -3.1770    4.9630 f         1 2T1     -0.169333
     28 HN3        -2.3240   -0.1900   -0.9470 hn        1 2T1      0.292000
     29 H5          2.6400   -1.7400    6.4130 hc        1 2T1      0.167000
     30 H6          3.9160   -0.7100    5.6650 hc        1 2T1      0.167000
     31 H7          0.2420   -1.8180    1.9450 hc        1 2T1      0.108500
     32 H8          1.7520   -2.8130    2.0150 hc        1 2T1      0.108500
     33 H8A        -2.5400   -3.0180    0.5000 ha        1 2T1      0.150500
     34 H10         1.6580   -2.5260   -0.5340 h1        1 2T1      0.098000
     35 H10A        2.0970   -0.8830   -1.2170 h1        1 2T1      0.098000
     36 H17        -0.2810    2.7110   -2.1090 ha        1 2T1      0.157000
     37 H16        -3.7830    4.5030   -3.2230 hc        1 2T1      0.129000
     38 H19        -5.2160    3.2910   -1.4490 ha        1 2T1      0.146000
     39 H18        -3.4990    5.1830   -1.5720 hc        1 2T1      0.129000
     40 H11         1.7080    0.1400    1.0610 hc        1 2T1      0.101500
     41 H11A        3.0760   -1.0460    0.9600 hc        1 2T1      0.101500
     42 H9         -2.2650   -1.2360    0.9060 ha        1 2T1      0.150500
     43 H9A        -0.5510   -3.1420   -0.9210 h4        1 2T1      0.120000
     44 H2          0.1980    0.4120    2.9970 ha        1 2T1      0.162000
     45 H1          0.5380    1.5740    5.1910 ha        1 2T1      0.157000
     46 C12         3.4140   -2.8920    3.9910 c3        1 2T1      0.458000
@<TRIPOS>BOND
     1    1    8 1   
     2    1   18 1   
     3    1   21 1   
     4    2    9 1   
     5    2   18 1   
     6    2   28 1   
     7    3    4 1   
     8    3   22 1   
     9    3   46 1   
    10    4    5 1   
    11    4   29 1   
    12    4   30 1   
    13    5   24 1   
    14    6   20 1   
    15    6   22 1   
    16    6   31 1   
    17    6   32 1   
    18    7   21 1   
    19    7   33 1   
    20    7   42 1   
    21    8   20 1   
    22    8   34 1   
    23    8   35 1   
    24    9   10 1   
    25    9   11 1   
    26   10   12 1   
    27   10   15 1   
    28   11   17 1   
    29   11   36 1   
    30   12   13 1   
    31   12   14 1   
    32   15   16 1   
    33   15   38 1   
    34   16   17 1   
    35   16   37 1   
    36   16   39 1   
    37   18   19 1   
    38   20   40 1   
    39   20   41 1   
    40   21   43 1   
    41   22   23 1   
    42   23   24 1   
    43   23   44 1   
    44   24   45 1   
    45   25   46 1   
    46   26   46 1   
    47   27   46 1   
@<TRIPOS>SUBSTRUCTURE
     1 2T1         1 TEMP              0 ****  ****    0 ROOT
