@<TRIPOS>MOLECULE
2T2
   36    38     1     0     0
SMALL
bcc


@<TRIPOS>ATOM
      1 O3          0.4710    1.4960   -0.2590 o         1 2T2     -0.849800
      2 C2          1.6520    1.4980   -0.7080 c         1 2T2      0.916600
      3 O1          2.3410    2.5500   -0.8600 o         1 2T2     -0.849800
      4 C4          2.2410    0.1340   -1.1250 c3        1 2T2     -0.142200
      5 C5          3.6700   -0.0390   -0.8440 cc        1 2T2     -0.081400
      6 C22         4.3940   -1.3010   -0.8070 ca        1 2T2     -0.083800
      7 C21         4.0220   -2.6320   -0.9720 ca        1 2T2     -0.085000
      8 C20         4.9910   -3.6240   -0.8710 ca        1 2T2     -0.176000
      9 C19         6.3300   -3.3060   -0.6010 ca        1 2T2     -0.136000
     10 C18         6.7420   -1.9910   -0.4190 ca        1 2T2     -0.153000
     11 C17         5.7790   -0.9800   -0.5180 ca        1 2T2     -0.048200
     12 N7          5.8700    0.4080   -0.3240 na        1 2T2     -0.095400
     13 C6          4.5940    0.9630   -0.5790 cd        1 2T2     -0.100100
     14 C8          7.0820    1.1630   -0.3050 c3        1 2T2      0.095600
     15 C9          7.6900    1.5090   -1.6390 ca        1 2T2     -0.111300
     16 C14         6.9110    2.0730   -2.6530 ca        1 2T2     -0.077000
     17 C13         7.5000    2.4330   -3.8750 ca        1 2T2      0.019000
     18 C15         6.7150    3.0020   -4.8970 cg        1 2T2     -0.115000
     19 C16         6.0390    3.4840   -5.7600 c1        1 2T2     -0.143500
     20 C12         8.8750    2.2240   -4.0730 ca        1 2T2     -0.114000
     21 C11         9.6440    1.6600   -3.0590 ca        1 2T2     -0.145000
     22 C10         9.0570    1.3000   -1.8470 ca        1 2T2     -0.119000
     23 H2          1.6560   -0.6770   -0.6160 hc        1 2T2      0.037200
     24 H3          2.0700    0.0310   -2.2310 hc        1 2T2      0.037200
     25 H4          2.9720   -2.8830   -1.1770 ha        1 2T2      0.132000
     26 H5          4.7070   -4.6770   -1.0030 ha        1 2T2      0.111000
     27 H6          7.0700   -4.1160   -0.5310 ha        1 2T2      0.108000
     28 H7          7.7920   -1.7540   -0.2060 ha        1 2T2      0.115000
     29 H8          4.3960    2.0430   -0.5120 h4        1 2T2      0.223000
     30 H9          7.8390    0.5850    0.3020 h1        1 2T2      0.058700
     31 H10         6.8660    2.1360    0.2310 h1        1 2T2      0.058700
     32 H11         5.8280    2.2290   -2.4960 ha        1 2T2      0.177000
     33 H12         5.4260    3.9080   -6.5130 ha        1 2T2      0.162500
     34 H13         9.3390    2.5060   -5.0290 ha        1 2T2      0.129000
     35 H14        10.7190    1.4930   -3.2170 ha        1 2T2      0.123000
     36 H15         9.6710    0.8480   -1.0550 ha        1 2T2      0.125000
@<TRIPOS>BOND
     1    1    2 1   
     2    2    3 1   
     3    2    4 1   
     4    4    5 1   
     5    4   23 1   
     6    4   24 1   
     7    5    6 1   
     8    5   13 2   
     9    6    7 ar  
    10    6   11 ar  
    11    7    8 ar  
    12    7   25 1   
    13    8    9 ar  
    14    8   26 1   
    15    9   10 ar  
    16    9   27 1   
    17   10   11 ar  
    18   10   28 1   
    19   11   12 1   
    20   12   13 1   
    21   12   14 1   
    22   13   29 1   
    23   14   15 1   
    24   14   30 1   
    25   14   31 1   
    26   15   16 ar  
    27   15   22 ar  
    28   16   17 ar  
    29   16   32 1   
    30   17   18 1   
    31   17   20 ar  
    32   18   19 3   
    33   19   33 1   
    34   20   21 ar  
    35   20   34 1   
    36   21   22 ar  
    37   21   35 1   
    38   22   36 1   
@<TRIPOS>SUBSTRUCTURE
     1 2T2         1 TEMP              0 ****  ****    0 ROOT
