@<TRIPOS>MOLECULE
2T2
   36    38     1     0     0
SMALL
bcc


@<TRIPOS>ATOM
      1 O3          0.4860    1.5090   -0.2140 o         1 2T2     -0.849800
      2 C2          1.6640    1.5100   -0.6700 c         1 2T2      0.916600
      3 O1          2.3590    2.5600   -0.8100 o         1 2T2     -0.849800
      4 C4          2.2420    0.1490   -1.1110 c3        1 2T2     -0.142200
      5 C5          3.6710   -0.0380   -0.8400 cc        1 2T2     -0.081400
      6 C22         4.3860   -1.3040   -0.8260 ca        1 2T2     -0.083800
      7 C21         4.0060   -2.6300   -1.0090 ca        1 2T2     -0.085000
      8 C20         4.9690   -3.6310   -0.9270 ca        1 2T2     -0.176000
      9 C19         6.3100   -3.3250   -0.6590 ca        1 2T2     -0.136000
     10 C18         6.7320   -2.0160   -0.4600 ca        1 2T2     -0.153000
     11 C17         5.7750   -0.9970   -0.5390 ca        1 2T2     -0.048200
     12 N7          5.8770    0.3870   -0.3250 na        1 2T2     -0.095400
     13 C6          4.6030    0.9540   -0.5640 cd        1 2T2     -0.100100
     14 C8          7.0940    1.1340   -0.2990 c3        1 2T2      0.095600
     15 C9          7.6980    1.4950   -1.6320 ca        1 2T2     -0.111300
     16 C14         6.9170    2.0790   -2.6340 ca        1 2T2     -0.077000
     17 C13         7.5040    2.4540   -3.8530 ca        1 2T2      0.019000
     18 C15         6.7170    3.0420   -4.8630 cg        1 2T2     -0.115000
     19 C16         6.0400    3.5410   -5.7160 c1        1 2T2     -0.143500
     20 C12         8.8760    2.2400   -4.0590 ca        1 2T2     -0.114000
     21 C11         9.6470    1.6560   -3.0580 ca        1 2T2     -0.145000
     22 C10         9.0620    1.2820   -1.8490 ca        1 2T2     -0.119000
     23 H2          1.6550   -0.6650   -0.6110 hc        1 2T2      0.037200
     24 H3          2.0640    0.0640   -2.2170 hc        1 2T2      0.037200
     25 H4          2.9530   -2.8720   -1.2120 ha        1 2T2      0.132000
     26 H5          4.6770   -4.6800   -1.0740 ha        1 2T2      0.111000
     27 H6          7.0460   -4.1410   -0.6060 ha        1 2T2      0.108000
     28 H7          7.7850   -1.7890   -0.2480 ha        1 2T2      0.115000
     29 H8          4.4130    2.0340   -0.4800 h4        1 2T2      0.223000
     30 H9          7.8500    0.5410    0.2950 h1        1 2T2      0.058700
     31 H10         6.8870    2.1000    0.2520 h1        1 2T2      0.058700
     32 H11         5.8360    2.2390   -2.4690 ha        1 2T2      0.177000
     33 H12         5.4260    3.9780   -6.4600 ha        1 2T2      0.162500
     34 H13         9.3370    2.5320   -5.0140 ha        1 2T2      0.129000
     35 H14        10.7200    1.4860   -3.2230 ha        1 2T2      0.123000
     36 H15         9.6780    0.8140   -1.0660 ha        1 2T2      0.125000
@<TRIPOS>BOND
     1    1    2 1   
     2    2    3 1   
     3    2    4 1   
     4    4    5 1   
     5    4   23 1   
     6    4   24 1   
     7    5    6 1   
     8    5   13 2   
     9    6    7 ar  
    10    6   11 ar  
    11    7    8 ar  
    12    7   25 1   
    13    8    9 ar  
    14    8   26 1   
    15    9   10 ar  
    16    9   27 1   
    17   10   11 ar  
    18   10   28 1   
    19   11   12 1   
    20   12   13 1   
    21   12   14 1   
    22   13   29 1   
    23   14   15 1   
    24   14   30 1   
    25   14   31 1   
    26   15   16 ar  
    27   15   22 ar  
    28   16   17 ar  
    29   16   32 1   
    30   17   18 1   
    31   17   20 ar  
    32   18   19 3   
    33   19   33 1   
    34   20   21 ar  
    35   20   34 1   
    36   21   22 ar  
    37   21   35 1   
    38   22   36 1   
@<TRIPOS>SUBSTRUCTURE
     1 2T2         1 TEMP              0 ****  ****    0 ROOT
