@<TRIPOS>MOLECULE
2T3
   26    26     1     0     0
SMALL
bcc


@<TRIPOS>ATOM
      1 O4          0.4240    1.0820    2.0390 o         1 2T3     -0.823300
      2 C4          1.0840    0.6570    1.0470 c         1 2T3      0.900600
      3 O41         0.7700    0.8170   -0.1620 o         1 2T3     -0.823300
      4 C3          2.3870   -0.1380    1.3290 c3        1 2T3     -0.021900
      5 O3          3.0910   -0.4490    0.1450 oh        1 2T3     -0.626800
      6 C2          2.0500   -1.4510    2.0620 c3        1 2T3      0.068100
      7 O2          2.7230   -2.5630    1.5210 oh        1 2T3     -0.581800
      8 C1          2.3970   -1.3210    3.5570 c         1 2T3      0.635100
      9 O11         3.2920   -2.0210    4.0710 o         1 2T3     -0.625100
     10 N1          1.6430   -0.3900    4.2540 n         1 2T3     -0.474100
     11 C16         1.7460   -0.0560    5.6050 ca        1 2T3      0.098600
     12 C17         1.0080    1.0600    6.0820 ca        1 2T3     -0.182500
     13 C18         1.0550    1.4150    7.4230 ca        1 2T3     -0.111500
     14 C19         1.8280    0.6860    8.3280 ca        1 2T3     -0.188000
     15 C20         2.5580   -0.4080    7.8710 ca        1 2T3     -0.111500
     16 C21         2.5270   -0.7850    6.5320 ca        1 2T3     -0.182500
     17 H3          3.0880    0.4900    1.9420 h1        1 2T3      0.057700
     18 HO3         2.4570   -0.3760   -0.5880 ho        1 2T3      0.433000
     19 H2          0.9560   -1.6980    1.9530 h1        1 2T3      0.099700
     20 HO2         3.6370   -2.2930    1.3550 ho        1 2T3      0.415000
     21 HN1         1.0390    0.2020    3.6920 hn        1 2T3      0.381500
     22 H17         0.3950    1.6520    5.3830 ha        1 2T3      0.158000
     23 H18         0.4770    2.2820    7.7730 ha        1 2T3      0.116500
     24 H19         1.8600    0.9740    9.3860 ha        1 2T3      0.114000
     25 H20         3.1730   -0.9880    8.5750 ha        1 2T3      0.116500
     26 H21         3.1180   -1.6530    6.1980 ha        1 2T3      0.158000
@<TRIPOS>BOND
     1    1    2 1   
     2    2    3 1   
     3    2    4 1   
     4    4    5 1   
     5    4    6 1   
     6    4   17 1   
     7    5   18 1   
     8    6    7 1   
     9    6    8 1   
    10    6   19 1   
    11    7   20 1   
    12    8    9 2   
    13    8   10 1   
    14   10   11 1   
    15   10   21 1   
    16   11   12 ar  
    17   11   16 ar  
    18   12   13 ar  
    19   12   22 1   
    20   13   14 ar  
    21   13   23 1   
    22   14   15 ar  
    23   14   24 1   
    24   15   16 ar  
    25   15   25 1   
    26   16   26 1   
@<TRIPOS>SUBSTRUCTURE
     1 2T3         1 TEMP              0 ****  ****    0 ROOT
