@<TRIPOS>MOLECULE
2T3
   26    24     1     0     0
SMALL
bcc


@<TRIPOS>ATOM
      1 O4         -2.3880   -2.1780   -3.8440 o         1 2T3     -0.553500
      2 C4         -2.9470   -1.6600   -2.8420 c2        1 2T3      0.316000
      3 O41        -4.1260   -1.2260   -2.9340 o         1 2T3     -0.553500
      4 C3         -2.1940   -1.5340   -1.5370 c3        1 2T3     -0.093000
      5 O3         -3.0460   -1.8750   -0.4690 oh        1 2T3     -0.366000
      6 C2         -1.7170   -0.1100   -1.3670 c3        1 2T3      0.008000
      7 O2         -2.8110    0.7170   -1.0490 oh        1 2T3     -0.359000
      8 C1         -0.6990   -0.0500   -0.2500 c2        1 2T3      0.320000
      9 O11        -0.9000   -0.6470    0.7880 o         1 2T3     -0.380000
     10 N1          0.4840    0.7180   -0.4090 n         1 2T3     -0.309000
     11 C16         1.4310    0.7880    0.6450 c2        1 2T3      0.108000
     12 C17         1.2000    1.7280    1.8080 c1        1 2T3     -0.173000
     13 C18         2.2220    1.8230    2.9190 c1        1 2T3     -0.147000
     14 C19         3.4810    0.9860    2.8610 c1        1 2T3     -0.147000
     15 C20         3.7120    0.0460    1.6990 c1        1 2T3     -0.107000
     16 C21         2.6900   -0.0480    0.5870 c2        1 2T3     -0.195000
     17 H3         -1.4250   -2.1360   -1.5460 h1        1 2T3      0.115000
     18 HO3        -3.4150   -2.6680   -0.6260 ho        1 2T3      0.226000
     19 H2         -1.3070    0.1980   -2.1990 h1        1 2T3      0.120000
     20 HO2        -2.8530    1.3900   -1.6290 ho        1 2T3      0.252000
     21 HN1         0.6480    1.1440   -1.1990 hn        1 2T3      0.262000
     22 H17         0.3870    2.2680    1.8450 ha        1 2T3      0.172000
     23 H18         2.0730    2.4290    3.6690 ha        1 2T3      0.118000
     24 H19         4.1400    1.0470    3.5780 ha        1 2T3      0.118000
     25 H20         4.5240   -0.4940    1.6620 ha        1 2T3      0.117000
     26 H21         2.8370   -0.6570   -0.1610 ha        1 2T3      0.132000
@<TRIPOS>BOND
     1    1    2 1   
     2    2    3 1   
     3    2    4 1   
     4    4    5 1   
     5    4    6 1   
     6    4   17 1   
     7    5   18 1   
     8    6    7 1   
     9    6    8 1   
    10    6   19 1   
    11    7   20 1   
    12    8    9 1   
    13    8   10 1   
    14   10   11 1   
    15   10   21 1   
    16   11   12 1   
    17   11   16 1   
    18   12   22 1   
    19   13   14 1   
    20   13   23 1   
    21   14   24 1   
    22   15   16 1   
    23   15   25 1   
    24   16   26 1   
@<TRIPOS>SUBSTRUCTURE
     1 2T3         1 TEMP              0 ****  ****    0 ROOT
