@<TRIPOS>MOLECULE
2T3
   26    26     1     0     0
SMALL
bcc


@<TRIPOS>ATOM
      1 O4          0.4940    1.3120    2.1460 o         1 2T3     -0.824300
      2 C4          0.9770    0.7110    1.1410 c         1 2T3      0.890600
      3 O41         0.4140    0.6180    0.0180 o         1 2T3     -0.824300
      4 C3          2.3680    0.0330    1.2820 c3        1 2T3      0.021100
      5 O3          2.9730   -0.1300    0.0180 oh        1 2T3     -0.596800
      6 C2          2.2050   -1.3360    1.9730 c3        1 2T3      0.061100
      7 O2          3.1460   -2.2250    1.4010 oh        1 2T3     -0.579800
      8 C1          2.4010   -1.2930    3.4990 c         1 2T3      0.635100
      9 O11         3.0390   -2.2230    4.0450 o         1 2T3     -0.656100
     10 N1          1.8200   -0.2510    4.1860 ns        1 2T3     -0.463100
     11 C16         1.8370   -0.0280    5.5660 ca        1 2T3      0.093600
     12 C17         1.1260    1.0960    6.0680 ca        1 2T3     -0.177500
     13 C18         1.1100    1.3670    7.4290 ca        1 2T3     -0.113500
     14 C19         1.7880    0.5450    8.3290 ca        1 2T3     -0.184000
     15 C20         2.4880   -0.5590    7.8480 ca        1 2T3     -0.113500
     16 C21         2.5200   -0.8520    6.4880 ca        1 2T3     -0.177500
     17 H3          3.0750    0.6810    1.8650 h1        1 2T3      0.061700
     18 HO3         2.2550   -0.2960   -0.6130 ho        1 2T3      0.420000
     19 H2          1.1650   -1.7350    1.7840 h1        1 2T3      0.061700
     20 HO2         3.2550   -2.9670    2.0130 ho        1 2T3      0.405000
     21 HN1         1.3140    0.4370    3.6330 hn        1 2T3      0.389500
     22 H17         0.5840    1.7580    5.3720 ha        1 2T3      0.161000
     23 H18         0.5550    2.2420    7.7980 ha        1 2T3      0.117000
     24 H19         1.7700    0.7670    9.4040 ha        1 2T3      0.114000
     25 H20         3.0260   -1.2130    8.5490 ha        1 2T3      0.117000
     26 H21         3.0830   -1.7320    6.1370 ha        1 2T3      0.161000
@<TRIPOS>BOND
     1    1    2 1   
     2    2    3 1   
     3    2    4 1   
     4    4    5 1   
     5    4    6 1   
     6    4   17 1   
     7    5   18 1   
     8    6    7 1   
     9    6    8 1   
    10    6   19 1   
    11    7   20 1   
    12    8    9 2   
    13    8   10 1   
    14   10   11 1   
    15   10   21 1   
    16   11   12 ar  
    17   11   16 ar  
    18   12   13 ar  
    19   12   22 1   
    20   13   14 ar  
    21   13   23 1   
    22   14   15 ar  
    23   14   24 1   
    24   15   16 ar  
    25   15   25 1   
    26   16   26 1   
@<TRIPOS>SUBSTRUCTURE
     1 2T3         1 TEMP              0 ****  ****    0 ROOT
