@<TRIPOS>MOLECULE
2T3
   26    26     1     0     0
SMALL
bcc


@<TRIPOS>ATOM
      1 O4          1.0950   -0.1060    0.9820 o         1 2T3     -0.823300
      2 C4         -0.1430    0.0980    1.1310 c         1 2T3      0.900600
      3 O41        -0.6650    0.7910    2.0440 o         1 2T3     -0.823300
      4 C3         -1.1150   -0.5630    0.1180 c3        1 2T3     -0.021900
      5 O3         -2.4540   -0.1610    0.3200 oh        1 2T3     -0.626800
      6 C2         -1.0360   -2.0970    0.2410 c3        1 2T3      0.068100
      7 O2         -2.3060   -2.7060    0.2690 oh        1 2T3     -0.581800
      8 C1         -0.2170   -2.6760   -0.9270 c         1 2T3      0.635100
      9 O11        -0.7460   -3.4200   -1.7750 o         1 2T3     -0.625100
     10 N1          1.1210   -2.3100   -0.9420 n         1 2T3     -0.474100
     11 C16         2.0880   -2.6730   -1.8790 ca        1 2T3      0.098600
     12 C17         3.3580   -2.0380   -1.8180 ca        1 2T3     -0.182500
     13 C18         4.3630   -2.3860   -2.7100 ca        1 2T3     -0.111500
     14 C19         4.1470   -3.3610   -3.6840 ca        1 2T3     -0.188000
     15 C20         2.9050   -3.9880   -3.7560 ca        1 2T3     -0.111500
     16 C21         1.8830   -3.6590   -2.8720 ca        1 2T3     -0.182500
     17 H3         -0.8550   -0.2350   -0.9250 h1        1 2T3      0.057700
     18 HO3        -2.5120    0.1830    1.2270 ho        1 2T3      0.433000
     19 H2         -0.5560   -2.3930    1.2180 h1        1 2T3      0.099700
     20 HO2        -2.8440   -2.2770   -0.4110 ho        1 2T3      0.415000
     21 HN1         1.3930   -1.5990   -0.2700 hn        1 2T3      0.381500
     22 H17         3.5470   -1.2620   -1.0590 ha        1 2T3      0.158000
     23 H18         5.3390   -1.8830   -2.6460 ha        1 2T3      0.116500
     24 H19         4.9470   -3.6290   -4.3860 ha        1 2T3      0.114000
     25 H20         2.7240   -4.7560   -4.5220 ha        1 2T3      0.116500
     26 H21         0.9090   -4.1680   -2.9540 ha        1 2T3      0.158000
@<TRIPOS>BOND
     1    1    2 1   
     2    2    3 1   
     3    2    4 1   
     4    4    5 1   
     5    4    6 1   
     6    4   17 1   
     7    5   18 1   
     8    6    7 1   
     9    6    8 1   
    10    6   19 1   
    11    7   20 1   
    12    8    9 2   
    13    8   10 1   
    14   10   11 1   
    15   10   21 1   
    16   11   12 ar  
    17   11   16 ar  
    18   12   13 ar  
    19   12   22 1   
    20   13   14 ar  
    21   13   23 1   
    22   14   15 ar  
    23   14   24 1   
    24   15   16 ar  
    25   15   25 1   
    26   16   26 1   
@<TRIPOS>SUBSTRUCTURE
     1 2T3         1 TEMP              0 ****  ****    0 ROOT
