@<TRIPOS>MOLECULE
2T3
   27    27     1     0     0
SMALL
bcc


@<TRIPOS>ATOM
      1 O4          0.1640   -0.9160   -0.7700 o         1 2T3     -0.772800
      2 C4          1.1180   -0.4600   -0.1170 c         1 2T3      0.911600
      3 O41         2.3000   -0.2040   -0.4880 o         1 2T3     -0.772800
      4 C3          0.8970   -0.1700    1.4180 c3        1 2T3     -0.063900
      5 O3          1.6170    0.9850    1.8060 oh        1 2T3     -0.670800
      6 C2          1.4440   -1.3840    2.1890 c3        1 2T3      0.092100
      7 O2          2.8150   -1.6300    1.9480 oh        1 2T3     -0.655800
      8 C1          1.3000   -1.1160    3.6880 c         1 2T3      0.547100
      9 O11         0.4280   -1.4970    4.4470 o         1 2T3     -0.430100
     10 N1          2.3810   -0.1850    4.2220 n4        1 2T3     -0.557200
     11 C16         2.3850    0.0480    5.6590 ca        1 2T3     -0.024400
     12 C17         1.6450    1.1180    6.1940 ca        1 2T3     -0.099000
     13 C18         1.6610    1.3360    7.5700 ca        1 2T3     -0.112000
     14 C19         2.4000    0.5040    8.4100 ca        1 2T3     -0.090000
     15 C20         3.1310   -0.5570    7.8750 ca        1 2T3     -0.112000
     16 C21         3.1300   -0.7950    6.5030 ca        1 2T3     -0.099000
     17 H3         -0.1810    0.0050    1.6560 h1        1 2T3      0.090700
     18 HO3         2.2400    1.1940    1.0840 ho        1 2T3      0.458000
     19 H2          0.8460   -2.3090    1.9470 h1        1 2T3      0.121700
     20 HO2         3.0260   -1.3180    1.0410 ho        1 2T3      0.495000
     21 HN1         3.2800   -0.5930    3.9260 hn        1 2T3      0.482300
     22 H17         1.0510    1.7800    5.5430 ha        1 2T3      0.156000
     23 H18         1.0810    2.1730    7.9910 ha        1 2T3      0.156500
     24 H19         2.4050    0.6820    9.4970 ha        1 2T3      0.154000
     25 H20         3.7130   -1.2170    8.5380 ha        1 2T3      0.156500
     26 H21         3.7080   -1.6410    6.0960 ha        1 2T3      0.156000
     27 H12         2.2630    0.7130    3.7110 hn        1 2T3      0.482300
@<TRIPOS>BOND
     1    1    2 1   
     2    2    3 1   
     3    2    4 1   
     4    4    5 1   
     5    4    6 1   
     6    4   17 1   
     7    5   18 1   
     8    6    7 1   
     9    6    8 1   
    10    6   19 1   
    11    7   20 1   
    12    8    9 2   
    13    8   10 1   
    14   10   11 1   
    15   10   21 1   
    16   10   27 1   
    17   11   12 ar  
    18   11   16 ar  
    19   12   13 ar  
    20   12   22 1   
    21   13   14 ar  
    22   13   23 1   
    23   14   15 ar  
    24   14   24 1   
    25   15   16 ar  
    26   15   25 1   
    27   16   26 1   
@<TRIPOS>SUBSTRUCTURE
     1 2T3         1 TEMP              0 ****  ****    0 ROOT
