@<TRIPOS>MOLECULE
2T4
   28    30     1     0     0
SMALL
bcc


@<TRIPOS>ATOM
      1 C1          0.0100   -0.2960    0.0750 ca        1 2T4      0.248100
      2 C2          1.4350   -0.3390    0.2010 ca        1 2T4     -0.204000
      3 C3          2.0360   -0.1700    1.4240 ca        1 2T4     -0.115000
      4 C4          1.2840    0.0430    2.6040 ca        1 2T4     -0.211000
      5 C5         -0.0850    0.0620    2.5050 ca        1 2T4     -0.071300
      6 C6         -0.7460   -0.0990    1.2400 ca        1 2T4     -0.261500
      7 C7         -1.0980    0.2490    3.6110 c3        1 2T4      0.071200
      8 C8         -2.4000    0.1930    2.8900 cc        1 2T4     -0.306700
      9 C9         -2.1710   -0.0130    1.4950 cd        1 2T4      0.489800
     10 S10        -4.0150    0.2930    3.2150 ss        1 2T4     -0.138300
     11 C11        -4.3810    0.0630    1.5120 cc        1 2T4      0.526300
     12 N12        -3.3020   -0.0830    0.7170 nd        1 2T4     -0.595000
     13 N13        -5.7420    0.0580    1.1250 nh        1 2T4     -0.875500
     14 O14        -0.6280   -0.4780   -1.1000 os        1 2T4     -0.263900
     15 C15         0.0630   -0.1120   -2.3020 c3        1 2T4     -0.045800
     16 P16         0.9770   -1.4760   -3.1170 p5        1 2T4      1.197700
     17 O17         0.1980   -2.7390   -2.8950 o         1 2T4     -0.930500
     18 O18         0.9950   -0.9440   -4.5280 o         1 2T4     -0.930500
     19 O19         2.3100   -1.3970   -2.3920 o         1 2T4     -0.930500
     20 H2          2.0110   -0.6070   -0.7460 ha        1 2T4      0.282000
     21 H3          3.1320   -0.2200    1.5000 ha        1 2T4      0.108000
     22 H4          1.7910    0.1750    3.5670 ha        1 2T4      0.093000
     23 H7         -0.9520    1.2320    4.1270 hc        1 2T4      0.039700
     24 H7A        -1.0130   -0.5670    4.3730 hc        1 2T4      0.039700
     25 HN13       -5.8890    0.7120    0.3740 hn        1 2T4      0.360300
     26 HN1A       -5.9950   -0.8580    0.7950 hn        1 2T4      0.360300
     27 H15        -0.7720    0.1970   -2.9740 h1        1 2T4      0.031700
     28 H15A        0.7500    0.7420   -2.1260 h1        1 2T4      0.031700
@<TRIPOS>BOND
     1    1    2 ar  
     2    1    6 ar  
     3    1   14 1   
     4    2    3 ar  
     5    2   20 1   
     6    3    4 ar  
     7    3   21 1   
     8    4    5 ar  
     9    4   22 1   
    10    5    6 ar  
    11    5    7 1   
    12    6    9 1   
    13    7    8 1   
    14    7   23 1   
    15    7   24 1   
    16    8    9 2   
    17    8   10 1   
    18    9   12 1   
    19   10   11 1   
    20   11   12 2   
    21   11   13 1   
    22   13   25 1   
    23   13   26 1   
    24   14   15 1   
    25   15   16 1   
    26   15   27 1   
    27   15   28 1   
    28   16   17 1   
    29   16   18 1   
    30   16   19 1   
@<TRIPOS>SUBSTRUCTURE
     1 2T4         1 TEMP              0 ****  ****    0 ROOT
