@<TRIPOS>MOLECULE
2T4
   28    30     1     0     0
SMALL
bcc


@<TRIPOS>ATOM
      1 C1          0.0140   -0.2990    0.0760 ca        1 2T4      0.248100
      2 C2          1.4390   -0.3460    0.2010 ca        1 2T4     -0.204000
      3 C3          2.0410   -0.1800    1.4250 ca        1 2T4     -0.115000
      4 C4          1.2880    0.0340    2.6050 ca        1 2T4     -0.211000
      5 C5         -0.0800    0.0560    2.5060 ca        1 2T4     -0.071300
      6 C6         -0.7410   -0.1010    1.2400 ca        1 2T4     -0.261500
      7 C7         -1.0930    0.2450    3.6120 c3        1 2T4      0.071200
      8 C8         -2.3950    0.1940    2.8900 cc        1 2T4     -0.306700
      9 C9         -2.1660   -0.0110    1.4950 cd        1 2T4      0.489800
     10 S10        -4.0090    0.2990    3.2150 ss        1 2T4     -0.138300
     11 C11        -4.3760    0.0720    1.5110 cc        1 2T4      0.526300
     12 N12        -3.2970   -0.0760    0.7160 nd        1 2T4     -0.595000
     13 N13        -5.7360    0.0720    1.1240 nv        1 2T4     -0.875500
     14 O14        -0.6240   -0.4780   -1.1000 os        1 2T4     -0.263900
     15 C15         0.0690   -0.1120   -2.3010 c3        1 2T4     -0.045800
     16 P16         0.9800   -1.4780   -3.1180 p5        1 2T4      1.197700
     17 O17         0.1970   -2.7390   -2.8970 o         1 2T4     -0.930500
     18 O18         0.9980   -0.9450   -4.5280 o         1 2T4     -0.930500
     19 O19         2.3120   -1.4030   -2.3920 o         1 2T4     -0.930500
     20 H2          2.0150   -0.6140   -0.7450 ha        1 2T4      0.282000
     21 H3          3.1360   -0.2340    1.5010 ha        1 2T4      0.108000
     22 H4          1.7950    0.1620    3.5690 ha        1 2T4      0.093000
     23 H7         -1.0100   -0.5730    4.3720 hc        1 2T4      0.039700
     24 H7A        -0.9450    1.2260    4.1290 hc        1 2T4      0.039700
     25 HN13       -5.8810    0.7280    0.3750 hn        1 2T4      0.360300
     26 HN1A       -5.9920   -0.8430    0.7920 hn        1 2T4      0.360300
     27 H15         0.7580    0.7400   -2.1240 h1        1 2T4      0.031700
     28 H15A       -0.7650    0.2000   -2.9740 h1        1 2T4      0.031700
@<TRIPOS>BOND
     1    1    2 ar  
     2    1    6 ar  
     3    1   14 1   
     4    2    3 ar  
     5    2   20 1   
     6    3    4 ar  
     7    3   21 1   
     8    4    5 ar  
     9    4   22 1   
    10    5    6 ar  
    11    5    7 1   
    12    6    9 1   
    13    7    8 1   
    14    7   23 1   
    15    7   24 1   
    16    8    9 2   
    17    8   10 1   
    18    9   12 1   
    19   10   11 1   
    20   11   12 2   
    21   11   13 1   
    22   13   25 1   
    23   13   26 1   
    24   14   15 1   
    25   15   16 1   
    26   15   27 1   
    27   15   28 1   
    28   16   17 1   
    29   16   18 1   
    30   16   19 1   
@<TRIPOS>SUBSTRUCTURE
     1 2T4         1 TEMP              0 ****  ****    0 ROOT
