@<TRIPOS>MOLECULE
2T4
   28    30     1     0     0
SMALL
bcc


@<TRIPOS>ATOM
      1 C1         -0.6760    0.6080    0.2350 ca        1 2T4      0.248100
      2 C2         -1.5590    1.7310    0.1640 ca        1 2T4     -0.204000
      3 C3         -1.0640    3.0030    0.0070 ca        1 2T4     -0.115000
      4 C4          0.3240    3.2580   -0.1000 ca        1 2T4     -0.211000
      5 C5          1.1830    2.1890   -0.0600 ca        1 2T4     -0.071300
      6 C6          0.7010    0.8470    0.1170 ca        1 2T4     -0.262500
      7 C7          2.6900    2.1980   -0.1730 c3        1 2T4      0.071200
      8 C8          3.0480    0.7580   -0.0390 cc        1 2T4     -0.306700
      9 C9          1.8630   -0.0210    0.1290 cd        1 2T4      0.489800
     10 S10         4.3910   -0.2010   -0.0320 ss        1 2T4     -0.138300
     11 C11         3.3850   -1.6240    0.1940 cc        1 2T4      0.526300
     12 N12         2.0620   -1.3740    0.2650 nd        1 2T4     -0.595000
     13 N13         4.0300   -2.8790    0.2880 nh        1 2T4     -0.875500
     14 O14        -1.1140   -0.6620    0.3670 os        1 2T4     -0.263900
     15 C15        -2.3640   -0.8730    1.0380 c3        1 2T4     -0.045800
     16 P16        -3.8280   -0.9730   -0.0620 p5        1 2T4      1.197700
     17 O17        -3.3890   -1.6230   -1.3410 o         1 2T4     -0.930500
     18 O18        -4.7370   -1.7890    0.8220 o         1 2T4     -0.930500
     19 O19        -4.1990    0.4960   -0.1720 o         1 2T4     -0.930500
     20 H2         -2.6740    1.4900    0.1560 ha        1 2T4      0.282000
     21 H3         -1.7620    3.8510   -0.0590 ha        1 2T4      0.108000
     22 H4          0.6910    4.2830   -0.2260 ha        1 2T4      0.093000
     23 H7          3.0140    2.6140   -1.1600 hc        1 2T4      0.039700
     24 H7A         3.1500    2.8150    0.6400 hc        1 2T4      0.039700
     25 HN13        3.7870   -3.4440   -0.5090 hn        1 2T4      0.360300
     26 HN1A        3.7250   -3.3620    1.1160 hn        1 2T4      0.360300
     27 H15        -2.2160   -1.8730    1.5110 h1        1 2T4      0.031700
     28 H15A       -2.5370   -0.1020    1.8170 h1        1 2T4      0.031700
@<TRIPOS>BOND
     1    1    2 ar  
     2    1    6 ar  
     3    1   14 1   
     4    2    3 ar  
     5    2   20 1   
     6    3    4 ar  
     7    3   21 1   
     8    4    5 ar  
     9    4   22 1   
    10    5    6 ar  
    11    5    7 1   
    12    6    9 1   
    13    7    8 1   
    14    7   23 1   
    15    7   24 1   
    16    8    9 2   
    17    8   10 1   
    18    9   12 1   
    19   10   11 1   
    20   11   12 2   
    21   11   13 1   
    22   13   25 1   
    23   13   26 1   
    24   14   15 1   
    25   15   16 1   
    26   15   27 1   
    27   15   28 1   
    28   16   17 1   
    29   16   18 1   
    30   16   19 1   
@<TRIPOS>SUBSTRUCTURE
     1 2T4         1 TEMP              0 ****  ****    0 ROOT
