@<TRIPOS>MOLECULE
2T4
   28    25     1     0     0
SMALL
bcc


@<TRIPOS>ATOM
      1 C1          1.0960    0.2220   -0.8310 c1        1 2T4      0.203000
      2 C2          2.4550   -0.0450   -0.8260 c1        1 2T4     -0.159500
      3 C3          3.1570   -0.1190    0.3910 c1        1 2T4     -0.159500
      4 C4          2.4850    0.0750    1.5920 c1        1 2T4     -0.211000
      5 C5          1.1210    0.3420    1.5900 c1        1 2T4     -0.064000
      6 C6          0.4230    0.4160    0.3660 c1        1 2T4     -0.155000
      7 C7          0.1530    0.6380    2.6920 c3        1 2T4     -0.022000
      8 C8         -1.1490    0.8710    2.0930 c2        1 2T4     -0.504000
      9 C9         -1.0040    0.7470    0.6620 c1        1 2T4      0.054000
     10 S10        -2.5680    1.4230    2.3780 ss        1 2T4      0.446000
     11 C11        -3.2870    1.6280    0.9870 c1        1 2T4     -0.244000
     12 N12        -2.3810    1.2350   -0.0340 n2        1 2T4     -0.069000
     13 N13        -4.7160    2.0480    0.9290 n2        1 2T4     -0.273000
     14 O14        -0.0050   -0.3710   -1.5530 os        1 2T4     -0.147000
     15 C15         0.3670   -0.9170   -2.8200 c3        1 2T4     -0.604000
     16 P16         0.5660   -2.7180   -2.6720 p5        1 2T4      1.605500
     17 O17         1.9210   -3.1140   -3.1660 o         1 2T4     -0.930500
     18 O18        -0.4960   -3.4120   -3.5050 o         1 2T4     -0.930500
     19 O19         0.4200   -3.1250   -1.2170 o         1 2T4     -0.930500
     20 H2          3.1050    0.2160   -1.4830 ha        1 2T4      0.195000
     21 H3          4.1050   -0.4480    0.3750 ha        1 2T4      0.195000
     22 H4          3.1030   -0.0500    2.3130 ha        1 2T4      0.093000
     23 H7          0.1050   -0.1450    3.3200 hc        1 2T4      0.079000
     24 H7A         0.4500    1.4630    3.1950 hc        1 2T4      0.079000
     25 HN13       -5.1140    2.1880    0.1300 hn        1 2T4      0.155500
     26 HN1A       -5.1940    2.1740    1.7120 hn        1 2T4      0.155500
     27 H15         1.2340   -0.5100   -3.1170 h1        1 2T4      0.071000
     28 H15A       -0.3520   -0.7130   -3.5000 h1        1 2T4      0.071000
@<TRIPOS>BOND
     1    1    6 1   
     2    1   14 1   
     3    2    3 1   
     4    2   20 1   
     5    3   21 1   
     6    4    5 1   
     7    4   22 1   
     8    5    7 1   
     9    7    8 1   
    10    7   23 1   
    11    7   24 1   
    12    8    9 1   
    13    8   10 1   
    14    9   12 1   
    15   10   11 1   
    16   11   12 1   
    17   13   25 1   
    18   13   26 1   
    19   14   15 1   
    20   15   16 1   
    21   15   27 1   
    22   15   28 1   
    23   16   17 1   
    24   16   18 1   
    25   16   19 1   
@<TRIPOS>SUBSTRUCTURE
     1 2T4         1 TEMP              0 ****  ****    0 ROOT
