@<TRIPOS>MOLECULE
2T4
   28    30     1     0     0
SMALL
bcc


@<TRIPOS>ATOM
      1 C1          0.0150   -0.2980    0.0760 ca        1 2T4      0.248100
      2 C2          1.4400   -0.3380    0.2010 ca        1 2T4     -0.204000
      3 C3          2.0410   -0.1620    1.4240 ca        1 2T4     -0.115000
      4 C4          1.2880    0.0560    2.6030 ca        1 2T4     -0.211000
      5 C5         -0.0800    0.0710    2.5040 ca        1 2T4     -0.071300
      6 C6         -0.7410   -0.0970    1.2390 ca        1 2T4     -0.262500
      7 C7         -1.0940    0.2620    3.6080 c3        1 2T4      0.071200
      8 C8         -2.3960    0.2010    2.8870 cc        1 2T4     -0.306700
      9 C9         -2.1660   -0.0120    1.4930 cd        1 2T4      0.489800
     10 S10        -4.0110    0.3000    3.2120 ss        1 2T4     -0.138300
     11 C11        -4.3770    0.0620    1.5100 cc        1 2T4      0.526300
     12 N12        -3.2970   -0.0860    0.7150 nd        1 2T4     -0.595000
     13 N13        -5.7370    0.0530    1.1230 nh        1 2T4     -0.875500
     14 O14        -0.6230   -0.4870   -1.0990 os        1 2T4     -0.263900
     15 C15         0.0690   -0.1270   -2.3030 c3        1 2T4     -0.045800
     16 P16         0.9850   -1.4930   -3.1110 p5        1 2T4      1.197700
     17 O17         0.2090   -2.7570   -2.8810 o         1 2T4     -0.930500
     18 O18         1.0020   -0.9690   -4.5240 o         1 2T4     -0.930500
     19 O19         2.3180   -1.4070   -2.3860 o         1 2T4     -0.930500
     20 H2          2.0170   -0.6100   -0.7440 ha        1 2T4      0.282000
     21 H3          3.1370   -0.2110    1.5000 ha        1 2T4      0.108000
     22 H4          1.7950    0.1920    3.5650 ha        1 2T4      0.093000
     23 H7         -0.9500    1.2470    4.1200 hc        1 2T4      0.039700
     24 H7A        -1.0080   -0.5500    4.3740 hc        1 2T4      0.039700
     25 HN13       -5.8850    0.7040    0.3690 hn        1 2T4      0.360300
     26 HN1A       -5.9890   -0.8640    0.7960 hn        1 2T4      0.360300
     27 H15         0.7540    0.7290   -2.1310 h1        1 2T4      0.031700
     28 H15A       -0.7670    0.1780   -2.9770 h1        1 2T4      0.031700
@<TRIPOS>BOND
     1    1    2 ar  
     2    1    6 ar  
     3    1   14 1   
     4    2    3 ar  
     5    2   20 1   
     6    3    4 ar  
     7    3   21 1   
     8    4    5 ar  
     9    4   22 1   
    10    5    6 ar  
    11    5    7 1   
    12    6    9 1   
    13    7    8 1   
    14    7   23 1   
    15    7   24 1   
    16    8    9 2   
    17    8   10 1   
    18    9   12 1   
    19   10   11 1   
    20   11   12 2   
    21   11   13 1   
    22   13   25 1   
    23   13   26 1   
    24   14   15 1   
    25   15   16 1   
    26   15   27 1   
    27   15   28 1   
    28   16   17 1   
    29   16   18 1   
    30   16   19 1   
@<TRIPOS>SUBSTRUCTURE
     1 2T4         1 TEMP              0 ****  ****    0 ROOT
