@<TRIPOS>MOLECULE
2T5
   26    28     1     0     0
SMALL
bcc


@<TRIPOS>ATOM
      1 P1         -0.2300    0.3140   -0.3650 p5        1 2T5      1.197700
      2 O2          1.1530    0.4530    0.1990 o         1 2T5     -0.930167
      3 O3         -1.3600    0.5710    0.6180 o         1 2T5     -0.930167
      4 O4         -0.4510    0.8860   -1.7420 o         1 2T5     -0.930167
      5 C5         -0.5010   -1.4610   -0.7390 c3        1 2T5     -0.045800
      6 O6          0.1520   -2.3830    0.1440 os        1 2T5     -0.262900
      7 C7         -0.5420   -2.8410    1.2070 ca        1 2T5      0.250100
      8 C8         -0.2060   -4.0860    1.7580 ca        1 2T5     -0.262500
      9 C9         -0.9120   -4.5710    2.9140 ca        1 2T5     -0.071300
     10 C10        -1.9270   -3.8490    3.4880 ca        1 2T5     -0.212000
     11 C11        -2.2490   -2.5890    2.9290 ca        1 2T5     -0.114000
     12 C12        -1.5880   -2.0910    1.8330 ca        1 2T5     -0.205000
     13 C13        -0.3750   -5.9200    3.3350 c3        1 2T5      0.070200
     14 C14         0.6860   -6.1870    2.3260 cc        1 2T5     -0.285700
     15 C15         0.7710   -5.0980    1.4090 cd        1 2T5      0.482800
     16 S16         1.8000   -7.3610    1.9400 ss        1 2T5     -0.218300
     17 C17         2.3390   -6.4080    0.5930 cc        1 2T5      0.372300
     18 N18         1.7260   -5.2460    0.4150 nd        1 2T5     -0.561000
     19 H5         -0.0160   -1.6850   -1.7180 h1        1 2T5      0.032700
     20 H5A        -1.5910   -1.6650   -0.7940 h1        1 2T5      0.032700
     21 H10        -2.4700   -4.2210    4.3640 ha        1 2T5      0.093000
     22 H11        -3.0400   -1.9880    3.4030 ha        1 2T5      0.108000
     23 H12        -1.7660   -1.0420    1.4230 ha        1 2T5      0.282000
     24 H13        -1.1790   -6.6980    3.3070 hc        1 2T5      0.039200
     25 H13A        0.0420   -5.8780    4.3730 hc        1 2T5      0.039200
     26 H17         3.1380   -6.7480   -0.0640 h5        1 2T5      0.028100
@<TRIPOS>BOND
     1    1    2 1   
     2    1    3 1   
     3    1    4 1   
     4    1    5 1   
     5    5    6 1   
     6    5   19 1   
     7    5   20 1   
     8    6    7 1   
     9    7    8 ar  
    10    7   12 ar  
    11    8    9 ar  
    12    8   15 1   
    13    9   10 ar  
    14    9   13 1   
    15   10   11 ar  
    16   10   21 1   
    17   11   12 ar  
    18   11   22 1   
    19   12   23 1   
    20   13   14 1   
    21   13   24 1   
    22   13   25 1   
    23   14   15 2   
    24   14   16 1   
    25   15   18 1   
    26   16   17 1   
    27   17   18 2   
    28   17   26 1   
@<TRIPOS>SUBSTRUCTURE
     1 2T5         1 TEMP              0 ****  ****    0 ROOT
