@<TRIPOS>MOLECULE
2T5
   26    28     1     0     0
SMALL
bcc


@<TRIPOS>ATOM
      1 P1         -3.7470   -0.7160    0.0310 p5        1 2T5      1.197700
      2 O2         -3.4000   -1.4290   -1.2430 o         1 2T5     -0.930167
      3 O3         -3.9620    0.7830   -0.1020 o         1 2T5     -0.930167
      4 O4         -4.7240   -1.4140    0.9430 o         1 2T5     -0.930167
      5 C5         -2.2630   -0.7520    1.1090 c3        1 2T5     -0.045800
      6 O6         -1.0030   -0.7040    0.4240 os        1 2T5     -0.262900
      7 C7         -0.4310    0.5040    0.2370 ca        1 2T5      0.250100
      8 C8          0.9620    0.5860    0.0980 ca        1 2T5     -0.262500
      9 C9          1.5830    1.8610   -0.1400 ca        1 2T5     -0.071300
     10 C10         0.8440    3.0140   -0.2180 ca        1 2T5     -0.212000
     11 C11        -0.5620    2.9170   -0.0850 ca        1 2T5     -0.114000
     12 C12        -1.1880    1.7140    0.1310 ca        1 2T5     -0.205000
     13 C13         3.0810    1.7050   -0.2670 c3        1 2T5      0.070200
     14 C14         3.2830    0.2430   -0.0710 cc        1 2T5     -0.285700
     15 C15         2.0260   -0.3970    0.1410 cd        1 2T5      0.482800
     16 S16         4.5180   -0.8700   -0.0220 ss        1 2T5     -0.218300
     17 C17         3.3680   -2.1340    0.2800 cc        1 2T5      0.372300
     18 N18         2.0970   -1.7660    0.3450 nd        1 2T5     -0.561000
     19 H5         -2.3370    0.0560    1.8670 h1        1 2T5      0.032700
     20 H5A        -2.2240   -1.7490    1.6090 h1        1 2T5      0.032700
     21 H10         1.3170    3.9880   -0.3910 ha        1 2T5      0.093000
     22 H11        -1.1650    3.8320   -0.1780 ha        1 2T5      0.108000
     23 H12        -2.3220    1.5980    0.1480 ha        1 2T5      0.282000
     24 H13         3.4340    2.0400   -1.2750 hc        1 2T5      0.039200
     25 H13A        3.6150    2.3050    0.5120 hc        1 2T5      0.039200
     26 H17         3.6790   -3.1710    0.4050 h5        1 2T5      0.028100
@<TRIPOS>BOND
     1    1    2 1   
     2    1    3 1   
     3    1    4 1   
     4    1    5 1   
     5    5    6 1   
     6    5   19 1   
     7    5   20 1   
     8    6    7 1   
     9    7    8 ar  
    10    7   12 ar  
    11    8    9 ar  
    12    8   15 1   
    13    9   10 ar  
    14    9   13 1   
    15   10   11 ar  
    16   10   21 1   
    17   11   12 ar  
    18   11   22 1   
    19   12   23 1   
    20   13   14 1   
    21   13   24 1   
    22   13   25 1   
    23   14   15 2   
    24   14   16 1   
    25   15   18 1   
    26   16   17 1   
    27   17   18 2   
    28   17   26 1   
@<TRIPOS>SUBSTRUCTURE
     1 2T5         1 TEMP              0 ****  ****    0 ROOT
