@<TRIPOS>MOLECULE
2T5
   26    28     1     0     0
SMALL
bcc


@<TRIPOS>ATOM
      1 P1         -0.2350    0.3130   -0.3660 p5        1 2T5      1.197700
      2 O2          1.1460    0.4560    0.2020 o         1 2T5     -0.930167
      3 O3         -1.3700    0.5680    0.6130 o         1 2T5     -0.930167
      4 O4         -0.4530    0.8840   -1.7450 o         1 2T5     -0.930167
      5 C5         -0.5010   -1.4630   -0.7390 c3        1 2T5     -0.045800
      6 O6          0.1520   -2.3830    0.1470 os        1 2T5     -0.262900
      7 C7         -0.5450   -2.8410    1.2080 ca        1 2T5      0.250100
      8 C8         -0.2080   -4.0850    1.7610 ca        1 2T5     -0.262500
      9 C9         -0.9160   -4.5700    2.9150 ca        1 2T5     -0.071300
     10 C10        -1.9350   -3.8500    3.4850 ca        1 2T5     -0.212000
     11 C11        -2.2590   -2.5910    2.9240 ca        1 2T5     -0.114000
     12 C12        -1.5950   -2.0930    1.8290 ca        1 2T5     -0.205000
     13 C13        -0.3770   -5.9180    3.3390 c3        1 2T5      0.070200
     14 C14         0.6880   -6.1830    2.3340 cc        1 2T5     -0.285700
     15 C15         0.7730   -5.0950    1.4160 cd        1 2T5      0.482800
     16 S16         1.8060   -7.3540    1.9520 ss        1 2T5     -0.218300
     17 C17         2.3470   -6.4010    0.6070 cc        1 2T5      0.372300
     18 N18         1.7320   -5.2410    0.4260 nd        1 2T5     -0.561000
     19 H5         -0.0120   -1.6870   -1.7170 h1        1 2T5      0.032700
     20 H5A        -1.5900   -1.6700   -0.7980 h1        1 2T5      0.032700
     21 H10        -2.4800   -4.2220    4.3600 ha        1 2T5      0.093000
     22 H11        -3.0520   -1.9930    3.3940 ha        1 2T5      0.108000
     23 H12        -1.7740   -1.0450    1.4170 ha        1 2T5      0.282000
     24 H13        -1.1790   -6.6980    3.3090 hc        1 2T5      0.039200
     25 H13A        0.0360   -5.8740    4.3780 hc        1 2T5      0.039200
     26 H17         3.1490   -6.7410   -0.0480 h5        1 2T5      0.028100
@<TRIPOS>BOND
     1    1    2 1   
     2    1    3 1   
     3    1    4 1   
     4    1    5 1   
     5    5    6 1   
     6    5   19 1   
     7    5   20 1   
     8    6    7 1   
     9    7    8 ar  
    10    7   12 ar  
    11    8    9 ar  
    12    8   15 1   
    13    9   10 ar  
    14    9   13 1   
    15   10   11 ar  
    16   10   21 1   
    17   11   12 ar  
    18   11   22 1   
    19   12   23 1   
    20   13   14 1   
    21   13   24 1   
    22   13   25 1   
    23   14   15 2   
    24   14   16 1   
    25   15   18 1   
    26   16   17 1   
    27   17   18 2   
    28   17   26 1   
@<TRIPOS>SUBSTRUCTURE
     1 2T5         1 TEMP              0 ****  ****    0 ROOT
