@<TRIPOS>MOLECULE
2T5
   26    23     1     0     0
SMALL
bcc


@<TRIPOS>ATOM
      1 P1          0.9270   -3.8970    1.3840 p3        1 2T5      2.564000
      2 O2         -0.1930   -3.9730    2.3820 os        1 2T5     -1.241000
      3 O3          1.1470   -5.2710    0.7620 o         1 2T5     -1.254000
      4 O4          2.1930   -3.4510    2.0810 o         1 2T5     -1.254000
      5 C5          0.4930   -2.6760    0.0540 c3        1 2T5     -0.604000
      6 O6          0.3790   -1.3840    0.6160 os        1 2T5     -0.146000
      7 C7          0.7340   -0.3430   -0.2680 c2        1 2T5      0.205000
      8 C8         -0.1680    0.7300   -0.3070 c1        1 2T5     -0.155000
      9 C9          0.3210    2.0660   -0.3530 c1        1 2T5     -0.064000
     10 C10         1.6990    2.3020   -0.3590 c1        1 2T5     -0.212000
     11 C11         2.5960    1.2280   -0.3200 c1        1 2T5     -0.114000
     12 C12         2.1130   -0.0980   -0.2740 c2        1 2T5     -0.205000
     13 C13        -0.8460    2.9830   -0.3430 c3        1 2T5     -0.023000
     14 C14        -2.0590    2.1680   -0.2970 c2        1 2T5     -0.483000
     15 C15        -1.6590    0.7820   -0.2710 c1        1 2T5      0.047000
     16 S16        -3.5860    2.2160   -0.4400 ss        1 2T5      0.366000
     17 C17        -4.0940    0.7500   -0.5010 c1        1 2T5     -0.342000
     18 N18        -2.9530   -0.1140   -0.4010 n2        1 2T5     -0.035000
     19 H5          1.2060   -2.6740   -0.6340 h1        1 2T5      0.072000
     20 H5A        -0.3950   -2.9390   -0.3760 h1        1 2T5      0.072000
     21 H10         2.1870    3.0990   -0.2290 ha        1 2T5      0.093000
     22 H11         3.5860    1.3960   -0.3210 ha        1 2T5      0.108000
     23 H12         3.0280   -0.4930   -0.1860 ha        1 2T5      0.282000
     24 H13        -0.8460    3.5470   -1.1820 hc        1 2T5      0.078500
     25 H13A       -0.8030    3.5780    0.4690 hc        1 2T5      0.078500
     26 H17        -5.0080    0.4700   -0.6850 DU        1 2T5      0.165000
@<TRIPOS>BOND
     1    1    3 1   
     2    1    4 1   
     3    1    5 1   
     4    5    6 1   
     5    5   19 1   
     6    5   20 1   
     7    6    7 1   
     8    7    8 1   
     9    7   12 1   
    10    9   10 1   
    11    9   13 1   
    12   10   21 1   
    13   11   12 1   
    14   11   22 1   
    15   12   23 1   
    16   13   14 1   
    17   13   24 1   
    18   13   25 1   
    19   14   15 1   
    20   14   16 1   
    21   15   18 1   
    22   16   17 1   
    23   17   18 1   
@<TRIPOS>SUBSTRUCTURE
     1 2T5         1 TEMP              0 ****  ****    0 ROOT
