@<TRIPOS>MOLECULE
2T6
   31    32     1     0     0
SMALL
bcc


@<TRIPOS>ATOM
      1 C1         -0.0580    0.0750   -0.1540 ca        1 2T6     -0.035000
      2 C2          1.3270   -0.0310   -0.1140 ca        1 2T6      0.006000
      3 C3          1.9980   -0.2120    1.1320 ca        1 2T6     -0.174000
      4 C4          1.2030   -0.3140    2.3200 ca        1 2T6     -0.084000
      5 C5         -0.1500   -0.2220    2.2640 ca        1 2T6     -0.184000
      6 C6         -0.8710    0.0010    1.0250 ca        1 2T6     -0.215000
      7 C7         -0.5490    0.2660   -1.5710 c3        1 2T6     -0.038000
      8 C8          0.7150    0.2660   -2.3610 c2        1 2T6     -0.454000
      9 C9          1.8240    0.0880   -1.4760 c2        1 2T6     -0.033000
     10 S10         1.2530    0.4040   -3.9200 ss        1 2T6      0.464000
     11 C11         2.8880    0.2320   -3.3870 c2        1 2T6     -0.359000
     12 N12         3.0660    0.0720   -2.0790 n2        1 2T6     -0.056000
     13 O13         3.3480   -0.2820    1.1100 os        1 2T6      0.092000
     14 C14         4.0530   -0.1760    2.2130 c2        1 2T6     -0.262000
     15 O15         3.4420   -1.3630    4.6660 o         1 2T6     -1.118667
     16 C16        -2.2390    0.1300    0.9190 c2        1 2T6      0.175000
     17 N17        -3.0240    0.0140    2.2560 n4        1 2T6     -0.128000
     18 O18        -3.0540    0.3250   -0.0170 o         1 2T6     -0.450000
     19 P19         4.7700   -1.8500    4.2350 p3        1 2T6      2.370000
     20 O20         4.9930   -3.2840    4.0000 o         1 2T6     -1.118667
     21 O21         5.8750   -0.8850    4.0800 o         1 2T6     -1.118667
     22 H4          1.7090   -0.5240    3.2830 ha        1 2T6      0.186000
     23 H5         -0.7090   -0.3460    3.2020 ha        1 2T6      0.078000
     24 H7         -1.2360   -0.5690   -1.8650 hc        1 2T6      0.120000
     25 H7A        -1.1150    1.2280   -1.6660 hc        1 2T6      0.120000
     26 H11         3.7280    0.2520   -4.0830 h5        1 2T6      0.176000
     27 H14         5.1310   -0.3530    2.0620 h4        1 2T6      0.202000
     28 H14A        3.6190    0.1130    3.1800 h4        1 2T6      0.202000
     29 HN17       -4.0150    0.1300    2.0560 hn        1 2T6      0.212000
     30 HN1A       -2.8550   -0.8970    2.6710 hn        1 2T6      0.212000
     31 H173       -2.7100    0.7330    2.9010 hn        1 2T6      0.212000
@<TRIPOS>BOND
     1    1    2 1   
     2    1    6 1   
     3    1    7 1   
     4    2    3 1   
     5    2    9 1   
     6    3    4 1   
     7    3   13 1   
     8    4    5 1   
     9    4   22 1   
    10    5    6 1   
    11    5   23 1   
    12    6   16 1   
    13    7    8 1   
    14    7   24 1   
    15    7   25 1   
    16    8    9 1   
    17    8   10 1   
    18    9   12 1   
    19   10   11 1   
    20   11   12 1   
    21   11   26 1   
    22   13   14 1   
    23   14   27 1   
    24   14   28 1   
    25   15   19 1   
    26   16   17 1   
    27   16   18 1   
    28   17   29 1   
    29   17   30 1   
    30   17   31 1   
    31   19   20 1   
    32   19   21 1   
@<TRIPOS>SUBSTRUCTURE
     1 2T6         1 TEMP              0 ****  ****    0 ROOT
