@<TRIPOS>MOLECULE
2T6
   31    32     1     0     0
SMALL
bcc


@<TRIPOS>ATOM
      1 C1         -0.0570    0.0870   -0.1520 ca        1 2T6     -0.035000
      2 C2          1.3280   -0.0320   -0.1140 ca        1 2T6      0.006000
      3 C3          1.9980   -0.2210    1.1310 ca        1 2T6     -0.174000
      4 C4          1.2040   -0.3170    2.3200 ca        1 2T6     -0.084000
      5 C5         -0.1480   -0.2110    2.2660 ca        1 2T6     -0.184000
      6 C6         -0.8680    0.0200    1.0280 ca        1 2T6     -0.215000
      7 C7         -0.5480    0.2840   -1.5680 c3        1 2T6     -0.038000
      8 C8          0.7150    0.2740   -2.3590 c2        1 2T6     -0.454000
      9 C9          1.8230    0.0840   -1.4770 c2        1 2T6     -0.033000
     10 S10         1.2520    0.4090   -3.9190 ss        1 2T6      0.464000
     11 C11         2.8870    0.2200   -3.3890 c2        1 2T6     -0.359000
     12 N12         3.0640    0.0570   -2.0810 n2        1 2T6     -0.056000
     13 O13         3.3480   -0.3040    1.1070 os        1 2T6      0.092000
     14 C14         4.0560   -0.2080    2.2090 c2        1 2T6     -0.262000
     15 O15         3.4360   -1.3910    4.6610 o         1 2T6     -1.118667
     16 C16        -2.2350    0.1610    0.9240 c2        1 2T6      0.175000
     17 N17        -3.0190    0.0510    2.2620 n4        1 2T6     -0.128000
     18 O18        -3.0500    0.3650   -0.0110 o         1 2T6     -0.450000
     19 P19         4.7590   -1.8910    4.2280 p3        1 2T6      2.370000
     20 O20         4.9670   -3.3270    3.9900 o         1 2T6     -1.118667
     21 O21         5.8730   -0.9380    4.0720 o         1 2T6     -1.118667
     22 H4          1.7100   -0.5330    3.2820 ha        1 2T6      0.186000
     23 H5         -0.7070   -0.3320    3.2050 ha        1 2T6      0.078000
     24 H7         -1.1040    1.2520   -1.6610 hc        1 2T6      0.120000
     25 H7A        -1.2430   -0.5430   -1.8630 hc        1 2T6      0.120000
     26 H11         3.7250    0.2330   -4.0860 h5        1 2T6      0.176000
     27 H14         5.1310   -0.3950    2.0560 h4        1 2T6      0.202000
     28 H14A        3.6260    0.0850    3.1770 h4        1 2T6      0.202000
     29 HN17       -2.8580   -0.8620    2.6760 hn        1 2T6      0.212000
     30 HN1A       -2.6980    0.7660    2.9070 hn        1 2T6      0.212000
     31 H173       -4.0100    0.1760    2.0630 hn        1 2T6      0.212000
@<TRIPOS>BOND
     1    1    2 1   
     2    1    6 1   
     3    1    7 1   
     4    2    3 1   
     5    2    9 1   
     6    3    4 1   
     7    3   13 1   
     8    4    5 1   
     9    4   22 1   
    10    5    6 1   
    11    5   23 1   
    12    6   16 1   
    13    7    8 1   
    14    7   24 1   
    15    7   25 1   
    16    8    9 1   
    17    8   10 1   
    18    9   12 1   
    19   10   11 1   
    20   11   12 1   
    21   11   26 1   
    22   13   14 1   
    23   14   27 1   
    24   14   28 1   
    25   15   19 1   
    26   16   17 1   
    27   16   18 1   
    28   17   29 1   
    29   17   30 1   
    30   17   31 1   
    31   19   20 1   
    32   19   21 1   
@<TRIPOS>SUBSTRUCTURE
     1 2T6         1 TEMP              0 ****  ****    0 ROOT
