@<TRIPOS>MOLECULE
2T6
   30    27     1     0     0
SMALL
bcc


@<TRIPOS>ATOM
      1 C1         -1.4280   -0.2140   -0.3960 c1        1 2T6      0.023000
      2 C2         -0.0210   -0.0750   -0.4480 c1        1 2T6     -0.165000
      3 C3          0.7070    0.0720    0.7300 c1        1 2T6      0.232000
      4 C4          0.0480    0.0820    1.9630 c1        1 2T6     -0.152500
      5 C5         -1.3510   -0.0570    2.0150 c1        1 2T6     -0.152500
      6 C6         -2.0830   -0.2040    0.8340 c1        1 2T6     -0.229000
      7 C7         -1.9290   -0.3230   -1.7890 c3        1 2T6     -0.035000
      8 C8         -0.7880   -0.2940   -2.6760 c2        1 2T6     -0.471000
      9 C9          0.3940   -0.1230   -1.8710 c1        1 2T6      0.028000
     10 S10        -0.3450   -0.4360   -4.1350 ss        1 2T6      0.391000
     11 C11         1.1960   -0.3390   -4.1640 c1        1 2T6     -0.352000
     12 N12         1.6500   -0.1520   -2.8200 n2        1 2T6     -0.035000
     13 O13         2.1040   -0.1250    0.7680 os        1 2T6     -0.127000
     14 C14         2.8510    1.0760    0.8070 c3        1 2T6     -0.606000
     15 O15         4.6440    1.5660    2.7980 o         1 2T6     -0.924500
     16 C16        -3.5740   -0.0890    1.1060 c2        1 2T6      0.367000
     17 N17        -4.3450   -1.2580    1.3460 n         1 2T6     -0.444000
     18 O18        -4.1160    0.9990    1.0720 o         1 2T6     -0.449000
     19 P19         4.4850    0.7500    1.5360 p5        1 2T6      1.599500
     20 O20         5.5620    1.1340    0.5500 o         1 2T6     -0.924500
     21 O21         4.6050   -0.7180    1.8670 o         1 2T6     -0.924500
     22 H4          0.5580    0.1850    2.7880 ha        1 2T6      0.197500
     23 H5         -1.8050   -0.0940    2.8790 ha        1 2T6      0.197500
     24 H7         -2.5210    0.4290   -1.9870 hc        1 2T6      0.109000
     25 H7A        -2.4130   -1.1640   -1.9010 hc        1 2T6      0.109000
     26 H11         1.7730   -0.5190   -4.9300 DU        1 2T6      0.166000
     27 H14         2.3770    1.7380    1.3510 h1        1 2T6      0.077500
     28 H14A        2.9630    1.4200   -0.1040 h1        1 2T6      0.077500
     29 HN17       -3.9620   -2.0830    1.2620 hn        1 2T6      0.208000
     30 HN1A       -5.2360   -1.1860    1.5510 hn        1 2T6      0.208000
@<TRIPOS>BOND
     1    1    6 1   
     2    1    7 1   
     3    2    3 1   
     4    3   13 1   
     5    4    5 1   
     6    4   22 1   
     7    5   23 1   
     8    6   16 1   
     9    7    8 1   
    10    7   24 1   
    11    7   25 1   
    12    8    9 1   
    13    8   10 1   
    14    9   12 1   
    15   10   11 1   
    16   11   12 1   
    17   13   14 1   
    18   14   19 1   
    19   14   27 1   
    20   14   28 1   
    21   15   19 1   
    22   16   17 1   
    23   16   18 1   
    24   17   29 1   
    25   17   30 1   
    26   19   20 1   
    27   19   21 1   
@<TRIPOS>SUBSTRUCTURE
     1 2T6         1 TEMP              0 ****  ****    0 ROOT
