@<TRIPOS>MOLECULE
2T6
   30    32     1     0     0
SMALL
bcc


@<TRIPOS>ATOM
      1 C1         -1.5800    0.9300   -0.1280 ca        1 2T6      0.015700
      2 C2         -0.7220   -0.2080   -0.2400 ca        1 2T6     -0.272500
      3 C3          0.6660   -0.0360   -0.4060 ca        1 2T6      0.277100
      4 C4          1.1620    1.3050   -0.4730 ca        1 2T6     -0.226000
      5 C5          0.3170    2.3780   -0.3660 ca        1 2T6     -0.079000
      6 C6         -1.0850    2.2240   -0.1790 ca        1 2T6     -0.249600
      7 C7         -3.0180    0.4940    0.0410 c3        1 2T6      0.058200
      8 C8         -2.9240   -0.9900    0.0180 cc        1 2T6     -0.273700
      9 C9         -1.5640   -1.3860   -0.1510 cd        1 2T6      0.463800
     10 S10        -3.9060   -2.3260    0.1200 ss        1 2T6     -0.193300
     11 C11        -2.5270   -3.3600   -0.0670 cc        1 2T6      0.362300
     12 N12        -1.3540   -2.7540   -0.2030 nd        1 2T6     -0.561000
     13 O13         1.4510   -1.1210   -0.4740 os        1 2T6     -0.243900
     14 C14         2.7500   -1.0000   -1.0680 c3        1 2T6     -0.047800
     15 O15         4.0640    1.0300   -0.1420 o         1 2T6     -0.924500
     16 C16        -1.9900    3.3710   -0.0130 c         1 2T6      0.693700
     17 N17        -1.4600    4.5900    0.3740 n         1 2T6     -0.684000
     18 O18        -3.2330    3.3210   -0.1980 o         1 2T6     -0.688100
     19 P19         4.1290   -0.4760    0.0480 p5        1 2T6      1.191700
     20 O20         3.7860   -0.9590    1.4250 o         1 2T6     -0.924500
     21 O21         5.2740   -1.1600   -0.6490 o         1 2T6     -0.924500
     22 H4          2.2960    1.4220   -0.5150 ha        1 2T6      0.283000
     23 H5          0.7550    3.3860   -0.4290 ha        1 2T6      0.112000
     24 H7         -3.4380    0.8820    1.0030 hc        1 2T6      0.069700
     25 H7A        -3.6460    0.8980   -0.7950 hc        1 2T6      0.069700
     26 H11        -2.6200   -4.4460   -0.0700 h5        1 2T6      0.029100
     27 H14         2.9590   -2.0490   -1.3830 h1        1 2T6      0.038200
     28 H14A        2.7170   -0.3240   -1.9480 h1        1 2T6      0.038200
     29 HN17       -0.5260    4.6460    0.6910 hn        1 2T6      0.294500
     30 HN1A       -2.0780    5.3270    0.5990 hn        1 2T6      0.294500
@<TRIPOS>BOND
     1    1    2 ar  
     2    1    6 ar  
     3    1    7 1   
     4    2    3 ar  
     5    2    9 1   
     6    3    4 ar  
     7    3   13 1   
     8    4    5 ar  
     9    4   22 1   
    10    5    6 ar  
    11    5   23 1   
    12    6   16 1   
    13    7    8 1   
    14    7   24 1   
    15    7   25 1   
    16    8    9 2   
    17    8   10 1   
    18    9   12 1   
    19   10   11 1   
    20   11   12 2   
    21   11   26 1   
    22   13   14 1   
    23   14   19 1   
    24   14   27 1   
    25   14   28 1   
    26   15   19 1   
    27   16   17 1   
    28   16   18 2   
    29   17   29 1   
    30   17   30 1   
    31   19   20 1   
    32   19   21 1   
@<TRIPOS>SUBSTRUCTURE
     1 2T6         1 TEMP              0 ****  ****    0 ROOT
