@<TRIPOS>MOLECULE
2T6
   31    32     1     0     0
SMALL
bcc


@<TRIPOS>ATOM
      1 C1         -0.0570    0.0850   -0.1530 ca        1 2T6     -0.035000
      2 C2          1.3290   -0.0260   -0.1130 ca        1 2T6      0.006000
      3 C3          1.9980   -0.2170    1.1330 ca        1 2T6     -0.174000
      4 C4          1.2020   -0.3230    2.3200 ca        1 2T6     -0.084000
      5 C5         -0.1500   -0.2250    2.2640 ca        1 2T6     -0.184000
      6 C6         -0.8700    0.0090    1.0260 ca        1 2T6     -0.215000
      7 C7         -0.5460    0.2860   -1.5690 c3        1 2T6     -0.038000
      8 C8          0.7180    0.2860   -2.3580 c2        1 2T6     -0.454000
      9 C9          1.8260    0.0980   -1.4740 c2        1 2T6     -0.033000
     10 S10         1.2570    0.4310   -3.9160 ss        1 2T6      0.464000
     11 C11         2.8920    0.2490   -3.3840 c2        1 2T6     -0.359000
     12 N12         3.0680    0.0810   -2.0760 n2        1 2T6     -0.056000
     13 O13         3.3470   -0.2930    1.1110 os        1 2T6      0.092000
     14 C14         4.0530   -0.1970    2.2140 c2        1 2T6     -0.262000
     15 O15         3.4360   -1.3950    4.6600 o         1 2T6     -1.118667
     16 C16        -2.2370    0.1440    0.9200 c2        1 2T6      0.175000
     17 N17        -3.0230    0.0240    2.2560 nz        1 2T6     -0.128000
     18 O18        -3.0510    0.3470   -0.0150 o         1 2T6     -0.450000
     19 P19         4.7620   -1.8860    4.2270 p3        1 2T6      2.370000
     20 O20         4.9790   -3.3190    3.9830 o         1 2T6     -1.118667
     21 O21         5.8720   -0.9250    4.0770 o         1 2T6     -1.118667
     22 H4          1.7070   -0.5410    3.2820 ha        1 2T6      0.186000
     23 H5         -0.7100   -0.3520    3.2010 ha        1 2T6      0.078000
     24 H7         -1.1070    1.2520   -1.6580 hc        1 2T6      0.120000
     25 H7A        -1.2370   -0.5430   -1.8680 hc        1 2T6      0.120000
     26 H11         3.7310    0.2690   -4.0800 h5        1 2T6      0.176000
     27 H14         3.6200    0.0890    3.1830 h4        1 2T6      0.202000
     28 H14A        5.1300   -0.3780    2.0620 h4        1 2T6      0.202000
     29 HN17       -2.8580   -0.8900    2.6670 hn        1 2T6      0.212000
     30 HN1A       -4.0140    0.1460    2.0570 hn        1 2T6      0.212000
     31 H173       -2.7060    0.7380    2.9050 hn        1 2T6      0.212000
@<TRIPOS>BOND
     1    1    2 1   
     2    1    6 1   
     3    1    7 1   
     4    2    3 1   
     5    2    9 1   
     6    3    4 1   
     7    3   13 1   
     8    4    5 1   
     9    4   22 1   
    10    5    6 1   
    11    5   23 1   
    12    6   16 1   
    13    7    8 1   
    14    7   24 1   
    15    7   25 1   
    16    8    9 1   
    17    8   10 1   
    18    9   12 1   
    19   10   11 1   
    20   11   12 1   
    21   11   26 1   
    22   13   14 1   
    23   14   27 1   
    24   14   28 1   
    25   15   19 1   
    26   16   17 1   
    27   16   18 1   
    28   17   29 1   
    29   17   30 1   
    30   17   31 1   
    31   19   20 1   
    32   19   21 1   
@<TRIPOS>SUBSTRUCTURE
     1 2T6         1 TEMP              0 ****  ****    0 ROOT
