@<TRIPOS>MOLECULE
2T7
   40    42     1     0     0
SMALL
bcc


@<TRIPOS>ATOM
      1 O25         0.6430   -0.1400    0.2820 o         1 2T7     -0.233000
      2 N23         1.8150   -0.2300    0.0170 no        1 2T7      0.322200
      3 O24         2.6430   -0.3520    0.8850 o         1 2T7     -0.233000
      4 C20         2.2480   -0.1720   -1.3930 ca        1 2T7     -0.233200
      5 C21         3.6180   -0.2320   -1.7040 ca        1 2T7     -0.027000
      6 C18         4.0240   -0.1350   -3.0270 ca        1 2T7     -0.218000
      7 C16         3.0680    0.0240   -4.0460 ca        1 2T7      0.216100
      8 O19         3.4010    0.2510   -5.3520 os        1 2T7     -0.327900
      9 C22         4.6380   -0.3150   -5.8090 c3        1 2T7      0.105700
     10 C17         1.2840   -0.0690   -2.4140 ca        1 2T7     -0.023000
     11 C15         1.6850    0.0250   -3.7400 ca        1 2T7     -0.164300
     12 C3          0.6640    0.0910   -4.8460 c3        1 2T7      0.099600
     13 N2          0.4360   -1.1340   -5.5570 na        1 2T7     -0.083400
     14 C10        -0.3360   -2.2010   -5.0430 ca        1 2T7     -0.059200
     15 C5         -1.4210   -2.2030   -4.1610 ca        1 2T7     -0.151000
     16 C4         -2.0510   -3.4160   -3.9000 ca        1 2T7     -0.134000
     17 C9          0.1140   -3.4310   -5.6640 ca        1 2T7     -0.073800
     18 C6         -0.5460   -4.6220   -5.3810 ca        1 2T7     -0.089000
     19 C1         -1.6230   -4.6060   -4.5000 ca        1 2T7     -0.169000
     20 C8          1.2500   -3.0830   -6.5070 cc        1 2T7     -0.085400
     21 C7          1.4290   -1.7130   -6.3920 cd        1 2T7     -0.104100
     22 C11         2.0740   -3.9930   -7.3080 c3        1 2T7     -0.138200
     23 C12         3.5780   -3.6520   -7.2710 c         1 2T7      0.917600
     24 O13         4.3900   -4.6030   -7.1080 o         1 2T7     -0.856300
     25 O14         3.9440   -2.4460   -7.4280 o         1 2T7     -0.856300
     26 H1          4.3640   -0.3510   -0.9000 ha        1 2T7      0.160000
     27 H2          5.0920   -0.1950   -3.2810 ha        1 2T7      0.156000
     28 H3          4.5480   -0.2500   -6.9260 h1        1 2T7      0.072700
     29 H4          5.4890    0.2920   -5.4200 h1        1 2T7      0.072700
     30 H5          4.7160   -1.3930   -5.5220 h1        1 2T7      0.072700
     31 H6          0.2090   -0.0770   -2.1610 ha        1 2T7      0.164000
     32 H7          1.0180    0.8530   -5.6030 h1        1 2T7      0.063200
     33 H8         -0.3210    0.4330   -4.4170 h1        1 2T7      0.063200
     34 H9         -1.7650   -1.2770   -3.6820 ha        1 2T7      0.117000
     35 H10        -2.9010   -3.4400   -3.2030 ha        1 2T7      0.113000
     36 H11        -0.2100   -5.5590   -5.8480 ha        1 2T7      0.134000
     37 H12        -2.1470   -5.5440   -4.2660 ha        1 2T7      0.113000
     38 H13         2.2230   -1.1050   -6.8480 h4        1 2T7      0.214000
     39 H14         1.9340   -5.0470   -6.9550 hc        1 2T7      0.039700
     40 H15         1.7520   -3.9440   -8.3830 hc        1 2T7      0.039700
@<TRIPOS>BOND
     1    1    2 1   
     2    2    3 1   
     3    2    4 1   
     4    4    5 ar  
     5    4   10 ar  
     6    5    6 ar  
     7    5   26 1   
     8    6    7 ar  
     9    6   27 1   
    10    7    8 1   
    11    7   11 ar  
    12    8    9 1   
    13    9   28 1   
    14    9   29 1   
    15    9   30 1   
    16   10   11 ar  
    17   10   31 1   
    18   11   12 1   
    19   12   13 1   
    20   12   32 1   
    21   12   33 1   
    22   13   14 1   
    23   13   21 1   
    24   14   15 ar  
    25   14   17 ar  
    26   15   16 ar  
    27   15   34 1   
    28   16   19 ar  
    29   16   35 1   
    30   17   18 ar  
    31   17   20 1   
    32   18   19 ar  
    33   18   36 1   
    34   19   37 1   
    35   20   21 2   
    36   20   22 1   
    37   21   38 1   
    38   22   23 1   
    39   22   39 1   
    40   22   40 1   
    41   23   24 1   
    42   23   25 1   
@<TRIPOS>SUBSTRUCTURE
     1 2T7         1 TEMP              0 ****  ****    0 ROOT
