@<TRIPOS>MOLECULE
2T7
   40    42     1     0     0
SMALL
bcc


@<TRIPOS>ATOM
      1 O25         0.6310   -0.1210    0.2730 o         1 2T7     -0.233000
      2 N23         1.8030   -0.2380    0.0200 no        1 2T7      0.322200
      3 O24         2.6200   -0.3790    0.8960 o         1 2T7     -0.233000
      4 C20         2.2520   -0.1880   -1.3860 ca        1 2T7     -0.233200
      5 C21         3.6230   -0.2790   -1.6830 ca        1 2T7     -0.027000
      6 C18         4.0440   -0.1910   -3.0010 ca        1 2T7     -0.218000
      7 C16         3.1030   -0.0090   -4.0310 ca        1 2T7      0.216100
      8 O19         3.4540    0.2110   -5.3320 os        1 2T7     -0.327900
      9 C22         4.6820   -0.3830   -5.7770 c3        1 2T7      0.105700
     10 C17         1.3000   -0.0630   -2.4160 ca        1 2T7     -0.023000
     11 C15         1.7170    0.0220   -3.7380 ca        1 2T7     -0.164300
     12 C3          0.7090    0.1130   -4.8540 c3        1 2T7      0.099600
     13 N2          0.4600   -1.1070   -5.5680 na        1 2T7     -0.083400
     14 C10        -0.3410   -2.1560   -5.0630 ca        1 2T7     -0.059200
     15 C5         -1.4340   -2.1340   -4.1920 ca        1 2T7     -0.151000
     16 C4         -2.0940   -3.3320   -3.9380 ca        1 2T7     -0.134000
     17 C9          0.0870   -3.3960   -5.6800 ca        1 2T7     -0.073800
     18 C6         -0.6020   -4.5710   -5.4060 ca        1 2T7     -0.089000
     19 C1         -1.6880   -4.5320   -4.5350 ca        1 2T7     -0.169000
     20 C8          1.2390   -3.0720   -6.5120 cc        1 2T7     -0.085400
     21 C7          1.4480   -1.7070   -6.3940 cd        1 2T7     -0.104100
     22 C11         2.0500   -4.0000   -7.3060 c3        1 2T7     -0.138200
     23 C12         3.5610   -3.6940   -7.2540 c         1 2T7      0.917600
     24 O13         4.3490   -4.6630   -7.0840 o         1 2T7     -0.856300
     25 O14         3.9560   -2.4970   -7.4050 o         1 2T7     -0.856300
     26 H1          4.3580   -0.4160   -0.8720 ha        1 2T7      0.160000
     27 H2          5.1130   -0.2750   -3.2450 ha        1 2T7      0.156000
     28 H3          4.6040   -0.3150   -6.8950 h1        1 2T7      0.072700
     29 H4          5.5430    0.2040   -5.3800 h1        1 2T7      0.072700
     30 H5          4.7320   -1.4630   -5.4910 h1        1 2T7      0.072700
     31 H6          0.2230   -0.0470   -2.1740 ha        1 2T7      0.164000
     32 H7          1.0870    0.8670   -5.6060 h1        1 2T7      0.063200
     33 H8         -0.2720    0.4770   -4.4350 h1        1 2T7      0.063200
     34 H9         -1.7620   -1.2010   -3.7150 ha        1 2T7      0.117000
     35 H10        -2.9510   -3.3370   -3.2490 ha        1 2T7      0.113000
     36 H11        -0.2830   -5.5150   -5.8700 ha        1 2T7      0.134000
     37 H12        -2.2350   -5.4570   -4.3070 ha        1 2T7      0.113000
     38 H13         2.2600   -1.1170   -6.8420 h4        1 2T7      0.214000
     39 H14         1.8830   -5.0520   -6.9550 hc        1 2T7      0.039700
     40 H15         1.7400   -3.9440   -8.3840 hc        1 2T7      0.039700
@<TRIPOS>BOND
     1    1    2 1   
     2    2    3 1   
     3    2    4 1   
     4    4    5 ar  
     5    4   10 ar  
     6    5    6 ar  
     7    5   26 1   
     8    6    7 ar  
     9    6   27 1   
    10    7    8 1   
    11    7   11 ar  
    12    8    9 1   
    13    9   28 1   
    14    9   29 1   
    15    9   30 1   
    16   10   11 ar  
    17   10   31 1   
    18   11   12 1   
    19   12   13 1   
    20   12   32 1   
    21   12   33 1   
    22   13   14 1   
    23   13   21 1   
    24   14   15 ar  
    25   14   17 ar  
    26   15   16 ar  
    27   15   34 1   
    28   16   19 ar  
    29   16   35 1   
    30   17   18 ar  
    31   17   20 1   
    32   18   19 ar  
    33   18   36 1   
    34   19   37 1   
    35   20   21 2   
    36   20   22 1   
    37   21   38 1   
    38   22   23 1   
    39   22   39 1   
    40   22   40 1   
    41   23   24 1   
    42   23   25 1   
@<TRIPOS>SUBSTRUCTURE
     1 2T7         1 TEMP              0 ****  ****    0 ROOT
