@<TRIPOS>MOLECULE
2T7
   40    42     1     0     0
SMALL
bcc


@<TRIPOS>ATOM
      1 O25         0.6080   -0.1230    0.2690 o         1 2T7     -0.233000
      2 N23         1.7810   -0.2410    0.0220 no        1 2T7      0.322200
      3 O24         2.5930   -0.3840    0.9020 o         1 2T7     -0.233000
      4 C20         2.2370   -0.1910   -1.3820 ca        1 2T7     -0.233200
      5 C21         3.6100   -0.2830   -1.6710 ca        1 2T7     -0.027000
      6 C18         4.0370   -0.1950   -2.9880 ca        1 2T7     -0.218000
      7 C16         3.1020   -0.0110   -4.0220 ca        1 2T7      0.216100
      8 O19         3.4600    0.2100   -5.3220 os        1 2T7     -0.327900
      9 C22         4.6890   -0.3850   -5.7610 c3        1 2T7      0.105700
     10 C17         1.2910   -0.0650   -2.4160 ca        1 2T7     -0.023000
     11 C15         1.7140    0.0220   -3.7360 ca        1 2T7     -0.164300
     12 C3          0.7130    0.1140   -4.8570 c3        1 2T7      0.099600
     13 N2          0.4660   -1.1050   -5.5740 na        1 2T7     -0.083400
     14 C10        -0.3380   -2.1540   -5.0740 ca        1 2T7     -0.059200
     15 C5         -1.4360   -2.1320   -4.2070 ca        1 2T7     -0.151000
     16 C4         -2.0990   -3.3300   -3.9580 ca        1 2T7     -0.134000
     17 C9          0.0920   -3.3930   -5.6890 ca        1 2T7     -0.073800
     18 C6         -0.6000   -4.5690   -5.4190 ca        1 2T7     -0.089000
     19 C1         -1.6900   -4.5290   -4.5540 ca        1 2T7     -0.169000
     20 C8          1.2480   -3.0700   -6.5150 cc        1 2T7     -0.085400
     21 C7          1.4580   -1.7050   -6.3950 cd        1 2T7     -0.104100
     22 C11         2.0620   -3.9980   -7.3060 c3        1 2T7     -0.138200
     23 C12         3.5730   -3.6930   -7.2450 c         1 2T7      0.917600
     24 O13         4.3600   -4.6630   -7.0720 o         1 2T7     -0.856300
     25 O14         3.9700   -2.4960   -7.3940 o         1 2T7     -0.856300
     26 H1          4.3400   -0.4210   -0.8570 ha        1 2T7      0.160000
     27 H2          5.1080   -0.2800   -3.2260 ha        1 2T7      0.156000
     28 H3          4.6170   -0.3160   -6.8780 h1        1 2T7      0.072700
     29 H4          4.7380   -1.4650   -5.4750 h1        1 2T7      0.072700
     30 H5          5.5490    0.2020   -5.3580 h1        1 2T7      0.072700
     31 H6          0.2130   -0.0470   -2.1800 ha        1 2T7      0.164000
     32 H7          1.0950    0.8680   -5.6070 h1        1 2T7      0.063200
     33 H8         -0.2710    0.4790   -4.4430 h1        1 2T7      0.063200
     34 H9         -1.7650   -1.1990   -3.7320 ha        1 2T7      0.117000
     35 H10        -2.9590   -3.3340   -3.2730 ha        1 2T7      0.113000
     36 H11        -0.2790   -5.5130   -5.8830 ha        1 2T7      0.134000
     37 H12        -2.2390   -5.4540   -4.3300 ha        1 2T7      0.113000
     38 H13         2.2720   -1.1160   -6.8380 h4        1 2T7      0.214000
     39 H14         1.8930   -5.0500   -6.9570 hc        1 2T7      0.039700
     40 H15         1.7580   -3.9410   -8.3850 hc        1 2T7      0.039700
@<TRIPOS>BOND
     1    1    2 1   
     2    2    3 1   
     3    2    4 1   
     4    4    5 ar  
     5    4   10 ar  
     6    5    6 ar  
     7    5   26 1   
     8    6    7 ar  
     9    6   27 1   
    10    7    8 1   
    11    7   11 ar  
    12    8    9 1   
    13    9   28 1   
    14    9   29 1   
    15    9   30 1   
    16   10   11 ar  
    17   10   31 1   
    18   11   12 1   
    19   12   13 1   
    20   12   32 1   
    21   12   33 1   
    22   13   14 1   
    23   13   21 1   
    24   14   15 ar  
    25   14   17 ar  
    26   15   16 ar  
    27   15   34 1   
    28   16   19 ar  
    29   16   35 1   
    30   17   18 ar  
    31   17   20 1   
    32   18   19 ar  
    33   18   36 1   
    34   19   37 1   
    35   20   21 2   
    36   20   22 1   
    37   21   38 1   
    38   22   23 1   
    39   22   39 1   
    40   22   40 1   
    41   23   24 1   
    42   23   25 1   
@<TRIPOS>SUBSTRUCTURE
     1 2T7         1 TEMP              0 ****  ****    0 ROOT
