@<TRIPOS>MOLECULE
2T9
   54    57     1     0     0
SMALL
bcc


@<TRIPOS>ATOM
      1 O33         0.6910    0.2520    0.3160 o         1 2T9     -0.234000
      2 N31         1.8030   -0.1620    0.1070 no        1 2T9      0.323200
      3 O32         2.5350   -0.4690    1.0140 o         1 2T9     -0.234000
      4 C6          2.2860   -0.2750   -1.2830 ca        1 2T9     -0.239200
      5 C5          3.6070   -0.6910   -1.5300 ca        1 2T9     -0.025000
      6 C4          4.0700   -0.7520   -2.8350 ca        1 2T9     -0.224000
      7 C7          1.4170    0.0260   -2.3490 ca        1 2T9     -0.022000
      8 C8          1.8750   -0.0350   -3.6590 ca        1 2T9     -0.172300
      9 C3          3.2250   -0.3960   -3.9030 ca        1 2T9      0.220100
     10 O2          3.6470   -0.3210   -5.1960 os        1 2T9     -0.316900
     11 C1          4.7920   -1.1040   -5.5610 c3        1 2T9      0.076700
     12 C9          0.9430    0.2660   -4.8030 c3        1 2T9      0.099600
     13 N10         0.5560   -0.8520   -5.6200 na        1 2T9     -0.078400
     14 C22        -0.2790   -1.8980   -5.1560 ca        1 2T9     -0.064200
     15 C17         0.0670   -3.1130   -5.8670 ca        1 2T9     -0.061800
     16 C12         1.2010   -2.7890   -6.7180 cc        1 2T9     -0.087400
     17 C13         1.9930   -3.6950   -7.5610 c3        1 2T9     -0.135200
     18 C14         3.4760   -3.2690   -7.5450 c         1 2T9      0.907600
     19 O16         3.8220   -2.2670   -8.2420 o         1 2T9     -0.852800
     20 O15         4.2840   -3.9080   -6.8140 o         1 2T9     -0.852800
     21 C11         1.4730   -1.4420   -6.5290 cd        1 2T9     -0.099100
     22 C21        -1.3420   -1.8770   -4.2510 ca        1 2T9     -0.124000
     23 C20        -2.0660   -3.0570   -4.0450 cp        1 2T9     -0.058000
     24 C19        -1.7280   -4.2340   -4.7380 ca        1 2T9     -0.146000
     25 C18        -0.6750   -4.2670   -5.6450 ca        1 2T9     -0.095000
     26 C23        -3.1830   -3.0670   -3.0970 cp        1 2T9      0.052000
     27 C30        -3.3650   -4.1630   -2.2480 ca        1 2T9     -0.214000
     28 C28        -4.4370   -4.1830   -1.3310 ca        1 2T9      0.153100
     29 N29        -4.5740   -5.2440   -0.4200 nv        1 2T9     -0.813200
     30 C27        -5.3280   -3.0920   -1.2840 ca        1 2T9     -0.248000
     31 C25        -5.1460   -1.9880   -2.1400 ca        1 2T9      0.153100
     32 N26        -6.0790   -0.9350   -2.1410 nv        1 2T9     -0.813200
     33 C24        -4.0640   -1.9840   -3.0450 ca        1 2T9     -0.214000
     34 H1          4.2690   -0.9610   -0.6900 ha        1 2T9      0.160000
     35 H2          5.0980   -1.0870   -3.0390 ha        1 2T9      0.159000
     36 H3          0.3690    0.3020   -2.1420 ha        1 2T9      0.162000
     37 H4          5.7140   -0.6150   -5.1690 h1        1 2T9      0.083367
     38 H5          4.7490   -1.1050   -6.6900 h1        1 2T9      0.083367
     39 H6          4.6910   -2.1600   -5.2070 h1        1 2T9      0.083367
     40 H7          0.0000    0.7320   -4.3940 h1        1 2T9      0.062700
     41 H8          1.4550    1.0090   -5.4820 h1        1 2T9      0.062700
     42 H9          1.6220   -3.6600   -8.6190 hc        1 2T9      0.041200
     43 H10         1.9020   -4.7460   -7.1880 hc        1 2T9      0.041200
     44 H12         2.2750   -0.8560   -6.9960 h4        1 2T9      0.210000
     45 H13        -1.6000   -0.9610   -3.7010 ha        1 2T9      0.125000
     46 H14        -2.3200   -5.1450   -4.5620 ha        1 2T9      0.120000
     47 H15        -0.4220   -5.1930   -6.1820 ha        1 2T9      0.135000
     48 H16        -2.6510   -4.9980   -2.2880 ha        1 2T9      0.137500
     49 H17        -4.1250   -6.0820   -0.7170 hn        1 2T9      0.377800
     50 H18        -5.5140   -5.3980   -0.1260 hn        1 2T9      0.377800
     51 H19        -6.1660   -3.1000   -0.5720 ha        1 2T9      0.124000
     52 H20        -6.5210   -0.8000   -1.2570 hn        1 2T9      0.377800
     53 H21        -5.7100   -0.0850   -2.5090 hn        1 2T9      0.377800
     54 H22        -3.9130   -1.1360   -3.7290 ha        1 2T9      0.137500
@<TRIPOS>BOND
     1    1    2 1   
     2    2    3 1   
     3    2    4 1   
     4    4    5 ar  
     5    4    7 ar  
     6    5    6 ar  
     7    5   34 1   
     8    6    9 ar  
     9    6   35 1   
    10    7    8 ar  
    11    7   36 1   
    12    8    9 ar  
    13    8   12 1   
    14    9   10 1   
    15   10   11 1   
    16   11   37 1   
    17   11   38 1   
    18   11   39 1   
    19   12   13 1   
    20   12   40 1   
    21   12   41 1   
    22   13   14 1   
    23   13   21 1   
    24   14   15 ar  
    25   14   22 ar  
    26   15   16 1   
    27   15   25 ar  
    28   16   17 1   
    29   16   21 2   
    30   17   18 1   
    31   17   42 1   
    32   17   43 1   
    33   18   19 1   
    34   18   20 1   
    35   21   44 1   
    36   22   23 ar  
    37   22   45 1   
    38   23   24 ar  
    39   23   26 1   
    40   24   25 ar  
    41   24   46 1   
    42   25   47 1   
    43   26   27 ar  
    44   26   33 ar  
    45   27   28 ar  
    46   27   48 1   
    47   28   29 1   
    48   28   30 ar  
    49   29   49 1   
    50   29   50 1   
    51   30   31 ar  
    52   30   51 1   
    53   31   32 1   
    54   31   33 ar  
    55   32   52 1   
    56   32   53 1   
    57   33   54 1   
@<TRIPOS>SUBSTRUCTURE
     1 2T9         1 TEMP              0 ****  ****    0 ROOT
