@<TRIPOS>MOLECULE
2T9
   54    57     1     0     0
SMALL
bcc


@<TRIPOS>ATOM
      1 O33         0.9360   -0.2070    0.3990 o         1 2T9     -0.231000
      2 N31         2.0880   -0.4010    0.1060 no        1 2T9      0.321200
      3 O32         2.9160   -0.6400    0.9480 o         1 2T9     -0.231000
      4 C6          2.4990   -0.3230   -1.3110 ca        1 2T9     -0.232200
      5 C5          3.8560   -0.4690   -1.6500 ca        1 2T9     -0.027000
      6 C4          4.2450   -0.3450   -2.9750 ca        1 2T9     -0.218000
      7 C7          1.5270   -0.1130   -2.3080 ca        1 2T9     -0.023000
      8 C8          1.9130    0.0080   -3.6370 ca        1 2T9     -0.165300
      9 C3          3.2870   -0.0740   -3.9690 ca        1 2T9      0.215100
     10 O2          3.6150    0.1910   -5.2690 os        1 2T9     -0.327900
     11 C1          4.8070   -0.4290   -5.7720 c3        1 2T9      0.105700
     12 C9          0.8820    0.1990   -4.7190 c3        1 2T9      0.102600
     13 N10         0.5690   -0.9660   -5.4950 na        1 2T9     -0.084400
     14 C22        -0.2950   -1.9960   -5.0610 ca        1 2T9     -0.063200
     15 C17         0.0470   -3.2080   -5.7770 ca        1 2T9     -0.065800
     16 C12         1.2060   -2.8970   -6.6000 cc        1 2T9     -0.088400
     17 C13         1.9460   -3.8080   -7.4770 c3        1 2T9     -0.138200
     18 C14         3.4740   -3.5940   -7.4380 c         1 2T9      0.917600
     19 O16         3.9360   -2.4130   -7.4890 o         1 2T9     -0.855800
     20 O15         4.2070   -4.6200   -7.3800 o         1 2T9     -0.855800
     21 C11         1.5030   -1.5590   -6.3820 cd        1 2T9     -0.095100
     22 C21        -1.3780   -1.9660   -4.1790 ca        1 2T9     -0.129000
     23 C20        -2.1240   -3.1360   -4.0010 cp        1 2T9     -0.058000
     24 C19        -1.7890   -4.3130   -4.6980 ca        1 2T9     -0.149000
     25 C18        -0.7180   -4.3530   -5.5820 ca        1 2T9     -0.093000
     26 C23        -3.2620   -3.1390   -3.0790 cp        1 2T9      0.053000
     27 C30        -3.4780   -4.2360   -2.2410 ca        1 2T9     -0.214500
     28 C28        -4.5710   -4.2490   -1.3500 ca        1 2T9      0.153100
     29 N29        -4.7420   -5.3130   -0.4490 nh        1 2T9     -0.813200
     30 C27        -5.4500   -3.1480   -1.3170 ca        1 2T9     -0.248000
     31 C25        -5.2350   -2.0410   -2.1620 ca        1 2T9      0.153100
     32 N26        -6.1560   -0.9790   -2.1800 nh        1 2T9     -0.813200
     33 C24        -4.1320   -2.0450   -3.0410 ca        1 2T9     -0.214500
     34 H1          4.6040   -0.6740   -0.8670 ha        1 2T9      0.161000
     35 H2          5.3030   -0.4690   -3.2520 ha        1 2T9      0.156000
     36 H3          0.4590   -0.0560   -2.0340 ha        1 2T9      0.165000
     37 H4          4.7080   -0.3020   -6.8830 h1        1 2T9      0.072700
     38 H5          4.8180   -1.5230   -5.5400 h1        1 2T9      0.072700
     39 H6          5.7010    0.1020   -5.3670 h1        1 2T9      0.072700
     40 H7          1.2720    0.9810   -5.4360 h1        1 2T9      0.063200
     41 H8         -0.0740    0.5760   -4.2540 h1        1 2T9      0.063200
     42 H9          1.6210   -3.6560   -8.5410 hc        1 2T9      0.039700
     43 H10         1.7250   -4.8720   -7.1990 hc        1 2T9      0.039700
     44 H12         2.3440   -0.9890   -6.8010 h4        1 2T9      0.217000
     45 H13        -1.6350   -1.0520   -3.6260 ha        1 2T9      0.123000
     46 H14        -2.3980   -5.2150   -4.5430 ha        1 2T9      0.119000
     47 H15        -0.4680   -5.2780   -6.1230 ha        1 2T9      0.137000
     48 H16        -2.7730   -5.0800   -2.2700 ha        1 2T9      0.137500
     49 H17        -5.6910   -5.4600   -0.1810 hn        1 2T9      0.377800
     50 H18        -4.2930   -6.1550   -0.7380 hn        1 2T9      0.377800
     51 H19        -6.3060   -3.1510   -0.6260 ha        1 2T9      0.124000
     52 H20        -5.7690   -0.1300   -2.5340 hn        1 2T9      0.377800
     53 H21        -6.6180   -0.8440   -1.3060 hn        1 2T9      0.377800
     54 H22        -3.9550   -1.1950   -3.7160 ha        1 2T9      0.137500
@<TRIPOS>BOND
     1    1    2 1   
     2    2    3 1   
     3    2    4 1   
     4    4    5 ar  
     5    4    7 ar  
     6    5    6 ar  
     7    5   34 1   
     8    6    9 ar  
     9    6   35 1   
    10    7    8 ar  
    11    7   36 1   
    12    8    9 ar  
    13    8   12 1   
    14    9   10 1   
    15   10   11 1   
    16   11   37 1   
    17   11   38 1   
    18   11   39 1   
    19   12   13 1   
    20   12   40 1   
    21   12   41 1   
    22   13   14 1   
    23   13   21 1   
    24   14   15 ar  
    25   14   22 ar  
    26   15   16 1   
    27   15   25 ar  
    28   16   17 1   
    29   16   21 2   
    30   17   18 1   
    31   17   42 1   
    32   17   43 1   
    33   18   19 1   
    34   18   20 1   
    35   21   44 1   
    36   22   23 ar  
    37   22   45 1   
    38   23   24 ar  
    39   23   26 1   
    40   24   25 ar  
    41   24   46 1   
    42   25   47 1   
    43   26   27 ar  
    44   26   33 ar  
    45   27   28 ar  
    46   27   48 1   
    47   28   29 1   
    48   28   30 ar  
    49   29   49 1   
    50   29   50 1   
    51   30   31 ar  
    52   30   51 1   
    53   31   32 1   
    54   31   33 ar  
    55   32   52 1   
    56   32   53 1   
    57   33   54 1   
@<TRIPOS>SUBSTRUCTURE
     1 2T9         1 TEMP              0 ****  ****    0 ROOT
