@<TRIPOS>MOLECULE
2T9
   54    57     1     0     0
SMALL
bcc


@<TRIPOS>ATOM
      1 O33         0.6020    0.5900    0.3020 o         1 2T9     -0.232500
      2 N31         1.7200    0.1710    0.1460 no        1 2T9      0.323200
      3 O32         2.4380   -0.0600    1.0860 o         1 2T9     -0.232500
      4 C6          2.2290   -0.0480   -1.2230 ca        1 2T9     -0.238200
      5 C5          3.5540   -0.4780   -1.4130 ca        1 2T9     -0.024000
      6 C4          4.0380   -0.6500   -2.7010 ca        1 2T9     -0.229000
      7 C7          1.3800    0.1710   -2.3250 ca        1 2T9     -0.023000
      8 C8          1.8590    0.0030   -3.6170 ca        1 2T9     -0.167300
      9 C3          3.2070   -0.3950   -3.8080 ca        1 2T9      0.213100
     10 O2          3.6330   -0.4610   -5.1010 os        1 2T9     -0.304900
     11 C1          4.7990   -1.2470   -5.3720 c3        1 2T9      0.078700
     12 C9          0.9590    0.2510   -4.7990 c3        1 2T9      0.106600
     13 N10         0.6130   -0.8900   -5.5930 na        1 2T9     -0.086400
     14 C22        -0.2550   -1.9220   -5.1780 ca        1 2T9     -0.061200
     15 C17         0.0220   -3.0970   -5.9830 ca        1 2T9     -0.064800
     16 C12         1.1410   -2.7590   -6.8460 cc        1 2T9     -0.095400
     17 C13         1.8310   -3.6280   -7.8060 c3        1 2T9     -0.134200
     18 C14         3.3490   -3.3560   -7.8390 c         1 2T9      0.910600
     19 O16         3.7530   -2.1940   -8.1560 o         1 2T9     -0.851800
     20 O15         4.1330   -4.3010   -7.5520 o         1 2T9     -0.851800
     21 C11         1.4810   -1.4410   -6.5660 cd        1 2T9     -0.086100
     22 C21        -1.2860   -1.9250   -4.2360 ca        1 2T9     -0.127000
     23 C20        -2.0460   -3.0890   -4.0830 cp        1 2T9     -0.058000
     24 C19        -1.7780   -4.2270   -4.8690 ca        1 2T9     -0.150000
     25 C18        -0.7580   -4.2360   -5.8120 ca        1 2T9     -0.094000
     26 C23        -3.1270   -3.1270   -3.0950 cp        1 2T9      0.053000
     27 C30        -3.3240   -4.2750   -2.3230 ca        1 2T9     -0.214500
     28 C28        -4.3590   -4.3220   -1.3660 ca        1 2T9      0.153100
     29 N29        -4.5070   -5.4430   -0.5320 nh        1 2T9     -0.813200
     30 C27        -5.1990   -3.2020   -1.2000 ca        1 2T9     -0.248000
     31 C25        -5.0020   -2.0440   -1.9780 ca        1 2T9      0.153100
     32 N26        -5.8870   -0.9570   -1.8610 nh        1 2T9     -0.813200
     33 C24        -3.9580   -2.0160   -2.9260 ca        1 2T9     -0.214500
     34 H1          4.2040   -0.6710   -0.5430 ha        1 2T9      0.160000
     35 H2          5.0730   -0.9880   -2.8580 ha        1 2T9      0.155000
     36 H3          0.3300    0.4700   -2.1580 ha        1 2T9      0.163000
     37 H4          5.7080   -0.6510   -5.1180 h1        1 2T9      0.078700
     38 H5          4.7110   -1.4530   -6.4830 h1        1 2T9      0.078700
     39 H6          4.7790   -2.2080   -4.8070 h1        1 2T9      0.078700
     40 H7         -0.0010    0.7180   -4.4320 h1        1 2T9      0.062700
     41 H8          1.4840    0.9840   -5.4810 h1        1 2T9      0.062700
     42 H9          1.4290   -3.4490   -8.8380 hc        1 2T9      0.039700
     43 H10         1.6560   -4.7040   -7.5450 hc        1 2T9      0.039700
     44 H12         2.3070   -0.8630   -7.0030 h4        1 2T9      0.217000
     45 H13        -1.4870   -1.0410   -3.6150 ha        1 2T9      0.123000
     46 H14        -2.3990   -5.1250   -4.7340 ha        1 2T9      0.119000
     47 H15        -0.5600   -5.1300   -6.4190 ha        1 2T9      0.135000
     48 H16        -2.6490   -5.1340   -2.4550 ha        1 2T9      0.137500
     49 H17        -4.1100   -6.2740   -0.9120 hn        1 2T9      0.377800
     50 H18        -5.4410   -5.5800   -0.2110 hn        1 2T9      0.377800
     51 H19        -6.0080   -3.2300   -0.4560 ha        1 2T9      0.124000
     52 H20        -6.2880   -0.8730   -0.9520 hn        1 2T9      0.377800
     53 H21        -5.4940   -0.0970   -2.1790 hn        1 2T9      0.377800
     54 H22        -3.7970   -1.1250   -3.5510 ha        1 2T9      0.137500
@<TRIPOS>BOND
     1    1    2 1   
     2    2    3 1   
     3    2    4 1   
     4    4    5 ar  
     5    4    7 ar  
     6    5    6 ar  
     7    5   34 1   
     8    6    9 ar  
     9    6   35 1   
    10    7    8 ar  
    11    7   36 1   
    12    8    9 ar  
    13    8   12 1   
    14    9   10 1   
    15   10   11 1   
    16   11   37 1   
    17   11   38 1   
    18   11   39 1   
    19   12   13 1   
    20   12   40 1   
    21   12   41 1   
    22   13   14 1   
    23   13   21 1   
    24   14   15 ar  
    25   14   22 ar  
    26   15   16 1   
    27   15   25 ar  
    28   16   17 1   
    29   16   21 2   
    30   17   18 1   
    31   17   42 1   
    32   17   43 1   
    33   18   19 1   
    34   18   20 1   
    35   21   44 1   
    36   22   23 ar  
    37   22   45 1   
    38   23   24 ar  
    39   23   26 1   
    40   24   25 ar  
    41   24   46 1   
    42   25   47 1   
    43   26   27 ar  
    44   26   33 ar  
    45   27   28 ar  
    46   27   48 1   
    47   28   29 1   
    48   28   30 ar  
    49   29   49 1   
    50   29   50 1   
    51   30   31 ar  
    52   30   51 1   
    53   31   32 1   
    54   31   33 ar  
    55   32   52 1   
    56   32   53 1   
    57   33   54 1   
@<TRIPOS>SUBSTRUCTURE
     1 2T9         1 TEMP              0 ****  ****    0 ROOT
