@<TRIPOS>MOLECULE
2TA
   76    79     1     0     0
SMALL
bcc


@<TRIPOS>ATOM
      1 CAQ         2.2360   -0.4840    0.9760 c3        1 2TA      0.158300
      2 CAR         3.2100    0.6460    1.3450 c3        1 2TA     -0.098400
      3 CAS         2.8000    1.1210    2.7330 c3        1 2TA     -0.098400
      4 CAT         1.6300    0.2200    3.1590 c3        1 2TA      0.158300
      5 NAP         1.2280   -0.6290    2.0340 n3        1 2TA     -0.738600
      6 CAO        -0.1370   -0.4320    1.5910 c3        1 2TA      0.166800
      7 CAN        -1.1280   -1.3330    2.3440 c3        1 2TA      0.116400
      8 OAM        -1.3210   -0.7060    3.6380 os        1 2TA     -0.279900
      9 CAJ        -2.0620   -1.3630    4.5510 ca        1 2TA      0.248100
     10 CAK        -2.1900   -0.7080    5.8080 ca        1 2TA     -0.181500
     11 CAL        -2.9280   -1.2860    6.8180 ca        1 2TA     -0.040000
     12 CAI        -2.6940   -2.6090    4.3420 ca        1 2TA     -0.181500
     13 CAH        -3.4350   -3.1920    5.3550 ca        1 2TA     -0.040000
     14 CAG        -3.5660   -2.5300    6.5940 ca        1 2TA     -0.186400
     15 NAF        -4.4110   -3.1040    7.6380 n4        1 2TA     -0.577100
     16 C2         -3.6630   -4.1130    8.4610 ca        1 2TA      0.762900
     17 N3         -3.2080   -3.7290    9.6860 nb        1 2TA     -0.679000
     18 N1         -3.4730   -5.3550    7.8750 nb        1 2TA     -0.603000
     19 C6         -2.7560   -6.2350    8.5720 ca        1 2TA      0.497200
     20 C5         -2.1930   -5.9530    9.8610 ca        1 2TA     -0.196900
     21 CAA        -1.3740   -6.9660   10.5470 c3        1 2TA     -0.106800
     22 C4         -2.4690   -4.6640   10.3650 ca        1 2TA      0.493200
     23 NAW        -1.9120   -4.2420   11.6800 n4        1 2TA     -0.618100
     24 CAX        -2.8900   -4.2660   12.7780 ca        1 2TA     -0.067400
     25 CBC        -2.8700   -5.3080   13.7160 ca        1 2TA      0.018000
     26 CAY        -3.8250   -3.2130   12.9010 ca        1 2TA     -0.007000
     27 CAZ        -4.7320   -3.2320   13.9550 ca        1 2TA     -0.109000
     28 CBA        -4.7250   -4.2820   14.8770 ca        1 2TA      0.045000
     29 CBB        -3.7920   -5.3260   14.7760 ca        1 2TA     -0.435500
     30 SBD        -3.8890   -6.6680   15.7810 sy        1 2TA      1.446200
     31 OBJ        -5.2020   -6.9390   16.0870 o         1 2TA     -0.543800
     32 OBK        -2.9630   -7.6040   15.3540 o         1 2TA     -0.543800
     33 NBE        -3.1460   -5.9640   17.2910 n4        1 2TA     -0.751900
     34 CBF        -3.4590   -6.7250   18.6030 c3        1 2TA      0.171200
     35 CBH        -4.8540   -6.3460   19.0960 c3        1 2TA     -0.148100
     36 CBI        -3.3750   -8.2290   18.3500 c3        1 2TA     -0.148100
     37 CBG        -2.4230   -6.3240   19.6560 c3        1 2TA     -0.148100
     38 H1          2.7820   -1.4660    0.9210 h1        1 2TA      0.046950
     39 H2          1.7770   -0.2890   -0.0300 h1        1 2TA      0.046950
     40 H3          4.2610    0.2660    1.3420 hc        1 2TA      0.059450
     41 H4          3.1470    1.4770    0.6010 hc        1 2TA      0.059450
     42 H5          3.6450    1.0310    3.4580 hc        1 2TA      0.059450
     43 H6          2.4830    2.1920    2.7110 hc        1 2TA      0.059450
     44 H7          1.9600   -0.4710    3.9820 h1        1 2TA      0.046950
     45 H8          0.7730    0.8330    3.5480 h1        1 2TA      0.046950
     46 H10        -0.2350   -0.7240    0.5050 h1        1 2TA      0.067700
     47 H11        -0.4880    0.6360    1.6960 h1        1 2TA      0.067700
     48 H12        -2.1160   -1.3490    1.8150 h1        1 2TA      0.066700
     49 H13        -0.7310   -2.3690    2.4900 h1        1 2TA      0.066700
     50 H14        -1.6980    0.2700    5.9490 ha        1 2TA      0.190500
     51 H15        -3.0270   -0.7590    7.7810 ha        1 2TA      0.154500
     52 H16        -2.6110   -3.1210    3.3680 ha        1 2TA      0.190500
     53 H17        -3.9230   -4.1650    5.1720 ha        1 2TA      0.154500
     54 H18        -4.7590   -2.3490    8.2470 hn        1 2TA      0.487300
     55 H19        -2.6030   -7.2320    8.0940 h4        1 2TA      0.111100
     56 H20        -0.2950   -6.6560   10.5720 hc        1 2TA      0.097700
     57 H21        -1.7320   -7.1460   11.5920 hc        1 2TA      0.097700
     58 H22        -1.4160   -7.9520   10.0070 hc        1 2TA      0.097700
     59 H23        -1.5420   -3.2770   11.5970 hn        1 2TA      0.488300
     60 H24        -2.1410   -6.1420   13.6340 ha        1 2TA      0.185000
     61 H25        -3.8480   -2.3770   12.1770 ha        1 2TA      0.188000
     62 H26        -5.4700   -2.4130   14.0590 ha        1 2TA      0.210000
     63 H27        -5.4900   -4.2950   15.6810 ha        1 2TA      0.196000
     64 H28        -3.4290   -4.9980   17.4580 hn        1 2TA      0.459300
     65 H29        -4.9280   -5.2550   19.3210 hc        1 2TA      0.089589
     66 H30        -5.6520   -6.6390   18.3690 hc        1 2TA      0.089589
     67 H31        -5.0460   -6.9040   20.0510 hc        1 2TA      0.089589
     68 H32        -2.3990   -8.5280   17.8950 hc        1 2TA      0.089589
     69 H33        -4.2200   -8.5890   17.7130 hc        1 2TA      0.089589
     70 H34        -3.4590   -8.7520   19.3400 hc        1 2TA      0.089589
     71 H35        -2.4370   -5.2240   19.8490 hc        1 2TA      0.089589
     72 H36        -1.3930   -6.6410   19.3600 hc        1 2TA      0.089589
     73 H37        -2.6780   -6.8430   20.6170 hc        1 2TA      0.089589
     74 HAF2       -5.2120   -3.5850    7.1920 hn        1 2TA      0.487300
     75 HAW2       -1.1270   -4.8770   11.9010 hn        1 2TA      0.488300
     76 HBE2       -2.1240   -5.9690   17.2150 hn        1 2TA      0.459300
@<TRIPOS>BOND
     1    1    2 1   
     2    1    5 1   
     3    1   38 1   
     4    1   39 1   
     5    2    3 1   
     6    2   40 1   
     7    2   41 1   
     8    3    4 1   
     9    3   42 1   
    10    3   43 1   
    11    4    5 1   
    12    4   44 1   
    13    4   45 1   
    14    5    6 1   
    15    6    7 1   
    16    6   46 1   
    17    6   47 1   
    18    7    8 1   
    19    7   48 1   
    20    7   49 1   
    21    8    9 1   
    22    9   10 ar  
    23    9   12 ar  
    24   10   11 ar  
    25   10   50 1   
    26   11   14 ar  
    27   11   51 1   
    28   12   13 ar  
    29   12   52 1   
    30   13   14 ar  
    31   13   53 1   
    32   14   15 1   
    33   15   16 1   
    34   15   54 1   
    35   15   74 1   
    36   16   17 ar  
    37   16   18 ar  
    38   17   22 ar  
    39   18   19 ar  
    40   19   20 ar  
    41   19   55 1   
    42   20   21 1   
    43   20   22 ar  
    44   21   56 1   
    45   21   57 1   
    46   21   58 1   
    47   22   23 1   
    48   23   24 1   
    49   23   59 1   
    50   23   75 1   
    51   24   25 ar  
    52   24   26 ar  
    53   25   29 ar  
    54   25   60 1   
    55   26   27 ar  
    56   26   61 1   
    57   27   28 ar  
    58   27   62 1   
    59   28   29 ar  
    60   28   63 1   
    61   29   30 1   
    62   30   31 2   
    63   30   32 2   
    64   30   33 1   
    65   33   34 1   
    66   33   64 1   
    67   33   76 1   
    68   34   35 1   
    69   34   36 1   
    70   34   37 1   
    71   35   65 1   
    72   35   66 1   
    73   35   67 1   
    74   36   68 1   
    75   36   69 1   
    76   36   70 1   
    77   37   71 1   
    78   37   72 1   
    79   37   73 1   
@<TRIPOS>SUBSTRUCTURE
     1 2TA         1 TEMP              0 ****  ****    0 ROOT
