@<TRIPOS>MOLECULE
2TA
   74    77     1     0     0
SMALL
bcc


@<TRIPOS>ATOM
      1 CAQ        -0.1050   -0.6170   -0.6320 c3        1 2TA      0.153800
      2 CAR         1.3590   -0.1610   -0.7350 c3        1 2TA     -0.096400
      3 CAS         1.9840   -0.4380    0.6260 c3        1 2TA     -0.096400
      4 CAT         0.8810   -1.0940    1.4720 c3        1 2TA      0.153800
      5 NAP        -0.3820   -1.0900    0.7290 n3        1 2TA     -0.724600
      6 CAO        -1.4610   -0.3650    1.3770 c3        1 2TA      0.164800
      7 CAN        -1.9640   -1.0390    2.6600 c3        1 2TA      0.124400
      8 OAM        -1.1720   -0.4950    3.7270 os        1 2TA     -0.329900
      9 CAJ        -1.4480   -0.9690    4.9890 ca        1 2TA      0.142100
     10 CAK        -0.6370   -0.4360    6.0110 ca        1 2TA     -0.174000
     11 CAL        -0.8290   -0.8360    7.3250 ca        1 2TA     -0.089500
     12 CAI        -2.4470   -1.9010    5.2930 ca        1 2TA     -0.174000
     13 CAH        -2.6300   -2.3080    6.6110 ca        1 2TA     -0.089500
     14 CAG        -1.8290   -1.7800    7.6440 ca        1 2TA      0.062600
     15 NAF        -2.0810   -2.1410    8.9940 nh        1 2TA     -0.691300
     16 C2         -1.1240   -2.8350    9.7530 ca        1 2TA      0.900900
     17 N3         -1.5870   -3.4470   10.9090 nb        1 2TA     -0.821000
     18 N1          0.2110   -2.8150    9.3550 nb        1 2TA     -0.720000
     19 C6          1.0800   -3.4120   10.1730 ca        1 2TA      0.489200
     20 C5          0.7340   -4.0430   11.3890 ca        1 2TA     -0.382900
     21 CAA         1.7580   -4.6750   12.2380 c3        1 2TA     -0.035800
     22 C4         -0.6530   -4.0190   11.7210 ca        1 2TA      0.677200
     23 NAW        -1.0540   -4.6140   12.9460 nh        1 2TA     -0.726300
     24 CAX        -2.3760   -4.6020   13.4080 ca        1 2TA      0.163600
     25 CBC        -2.9280   -5.7510   14.0030 ca        1 2TA     -0.083000
     26 CAY        -3.1610   -3.4160   13.3890 ca        1 2TA     -0.005000
     27 CAZ        -4.4450   -3.4170   13.9240 ca        1 2TA     -0.132000
     28 CBA        -4.9760   -4.5620   14.5040 ca        1 2TA     -0.022000
     29 CBB        -4.2200   -5.7470   14.5660 ca        1 2TA     -0.510500
     30 SBD        -4.8480   -7.0980   15.1720 sy        1 2TA      1.485200
     31 OBJ        -6.2260   -7.1140   15.2370 o         1 2TA     -0.576300
     32 OBK        -4.1290   -8.2450   14.8900 o         1 2TA     -0.576300
     33 NBE        -4.3090   -6.7760   16.9710 n4        1 2TA     -0.705900
     34 CBF        -5.0970   -7.4580   18.0740 c3        1 2TA      0.158200
     35 CBH        -6.4400   -6.7520   18.2850 c3        1 2TA     -0.131767
     36 CBI        -5.3420   -8.9260   17.7130 c3        1 2TA     -0.131767
     37 CBG        -4.3000   -7.3980   19.3840 c3        1 2TA     -0.131767
     38 H1         -0.7930    0.2160   -0.9430 h1        1 2TA      0.049700
     39 H2         -0.2890   -1.4880   -1.3190 h1        1 2TA      0.049700
     40 H3          1.8850   -0.7260   -1.5420 hc        1 2TA      0.048700
     41 H4          1.4150    0.9250   -0.9890 hc        1 2TA      0.048700
     42 H5          2.8630   -1.1210    0.5360 hc        1 2TA      0.048700
     43 H6          2.3340    0.5080    1.1050 hc        1 2TA      0.048700
     44 H7          1.1370   -2.1720    1.6660 h1        1 2TA      0.049700
     45 H8          0.7830   -0.5780    2.4660 h1        1 2TA      0.049700
     46 H10        -2.3320   -0.3410    0.6610 h1        1 2TA      0.048700
     47 H11        -1.1830    0.7010    1.6270 h1        1 2TA      0.048700
     48 H12        -3.0390   -0.7670    2.8290 h1        1 2TA      0.051200
     49 H13        -1.8480   -2.1530    2.6320 h1        1 2TA      0.051200
     50 H14         0.1420    0.2960    5.7540 ha        1 2TA      0.151500
     51 H15        -0.1900   -0.4110    8.1150 ha        1 2TA      0.142000
     52 H16        -3.0870   -2.3240    4.5060 ha        1 2TA      0.151500
     53 H17        -3.4170   -3.0450    6.8330 ha        1 2TA      0.142000
     54 H18        -3.0320   -2.3950    9.1770 hn        1 2TA      0.434800
     55 H19         2.1380   -3.3900    9.8400 h4        1 2TA      0.043100
     56 H20         2.7790   -4.5280   11.8030 hc        1 2TA      0.047700
     57 H21         1.5800   -5.7770   12.3260 hc        1 2TA      0.047700
     58 H22         1.7530   -4.2330   13.2660 hc        1 2TA      0.047700
     59 H23        -0.5330   -5.4420   13.1610 hn        1 2TA      0.437800
     60 H24        -2.3520   -6.6960   14.0200 ha        1 2TA      0.160000
     61 H25        -2.7590   -2.4840   12.9510 ha        1 2TA      0.190000
     62 H26        -5.0490   -2.4930   13.8840 ha        1 2TA      0.172000
     63 H27        -6.0070   -4.5500   14.9020 ha        1 2TA      0.163000
     64 H28        -4.3210   -5.7770   17.1680 hn        1 2TA      0.441300
     65 H29        -7.0780   -6.8000   17.3670 hc        1 2TA      0.075144
     66 H30        -6.2930   -5.6850   18.5820 hc        1 2TA      0.075144
     67 H31        -6.9830   -7.2730   19.1120 hc        1 2TA      0.075144
     68 H32        -4.3870   -9.4600   17.4860 hc        1 2TA      0.075144
     69 H33        -6.0340   -9.0180   16.8400 hc        1 2TA      0.075144
     70 H34        -5.8240   -9.4280   18.5890 hc        1 2TA      0.075144
     71 H35        -4.0910   -6.3420   19.6820 hc        1 2TA      0.075144
     72 H36        -3.3370   -7.9560   19.2970 hc        1 2TA      0.075144
     73 H37        -4.9070   -7.8740   20.1940 hc        1 2TA      0.075144
     74 HBE2       -3.3450   -7.0920   17.0660 hn        1 2TA      0.441300
@<TRIPOS>BOND
     1    1    2 1   
     2    1    5 1   
     3    1   38 1   
     4    1   39 1   
     5    2    3 1   
     6    2   40 1   
     7    2   41 1   
     8    3    4 1   
     9    3   42 1   
    10    3   43 1   
    11    4    5 1   
    12    4   44 1   
    13    4   45 1   
    14    5    6 1   
    15    6    7 1   
    16    6   46 1   
    17    6   47 1   
    18    7    8 1   
    19    7   48 1   
    20    7   49 1   
    21    8    9 1   
    22    9   10 ar  
    23    9   12 ar  
    24   10   11 ar  
    25   10   50 1   
    26   11   14 ar  
    27   11   51 1   
    28   12   13 ar  
    29   12   52 1   
    30   13   14 ar  
    31   13   53 1   
    32   14   15 1   
    33   15   16 1   
    34   15   54 1   
    35   16   17 ar  
    36   16   18 ar  
    37   17   22 ar  
    38   18   19 ar  
    39   19   20 ar  
    40   19   55 1   
    41   20   21 1   
    42   20   22 ar  
    43   21   56 1   
    44   21   57 1   
    45   21   58 1   
    46   22   23 1   
    47   23   24 1   
    48   23   59 1   
    49   24   25 ar  
    50   24   26 ar  
    51   25   29 ar  
    52   25   60 1   
    53   26   27 ar  
    54   26   61 1   
    55   27   28 ar  
    56   27   62 1   
    57   28   29 ar  
    58   28   63 1   
    59   29   30 1   
    60   30   31 2   
    61   30   32 2   
    62   30   33 1   
    63   33   34 1   
    64   33   64 1   
    65   33   74 1   
    66   34   35 1   
    67   34   36 1   
    68   34   37 1   
    69   35   65 1   
    70   35   66 1   
    71   35   67 1   
    72   36   68 1   
    73   36   69 1   
    74   36   70 1   
    75   37   71 1   
    76   37   72 1   
    77   37   73 1   
@<TRIPOS>SUBSTRUCTURE
     1 2TA         1 TEMP              0 ****  ****    0 ROOT
