@<TRIPOS>MOLECULE
2TA
   74    77     1     0     0
SMALL
bcc


@<TRIPOS>ATOM
      1 CAQ        -0.1080   -0.6160   -0.6300 c3        1 2TA      0.153800
      2 CAR         1.3610   -0.1760   -0.7370 c3        1 2TA     -0.096900
      3 CAS         1.9870   -0.4640    0.6210 c3        1 2TA     -0.096900
      4 CAT         0.8800   -1.1100    1.4690 c3        1 2TA      0.153800
      5 NAP        -0.3850   -1.0890    0.7300 n3        1 2TA     -0.724600
      6 CAO        -1.4530   -0.3520    1.3830 c3        1 2TA      0.164800
      7 CAN        -1.9590   -1.0220    2.6670 c3        1 2TA      0.124400
      8 OAM        -1.1580   -0.4890    3.7320 os        1 2TA     -0.329900
      9 CAJ        -1.4340   -0.9610    4.9950 ca        1 2TA      0.142100
     10 CAK        -0.6140   -0.4400    6.0150 ca        1 2TA     -0.174000
     11 CAL        -0.8050   -0.8400    7.3290 ca        1 2TA     -0.089500
     12 CAI        -2.4420   -1.8830    5.3010 ca        1 2TA     -0.174000
     13 CAH        -2.6250   -2.2900    6.6190 ca        1 2TA     -0.089500
     14 CAG        -1.8150   -1.7740    7.6500 ca        1 2TA      0.062600
     15 NAF        -2.0660   -2.1340    9.0010 nu        1 2TA     -0.691300
     16 C2         -1.1130   -2.8400    9.7540 ca        1 2TA      0.900900
     17 N3         -1.5790   -3.4500   10.9110 nb        1 2TA     -0.821000
     18 N1          0.2210   -2.8330    9.3530 nb        1 2TA     -0.720000
     19 C6          1.0860   -3.4410   10.1660 ca        1 2TA      0.489200
     20 C5          0.7360   -4.0720   11.3810 ca        1 2TA     -0.382900
     21 CAA         1.7570   -4.7160   12.2260 c3        1 2TA     -0.035800
     22 C4         -0.6490   -4.0340   11.7180 ca        1 2TA      0.677200
     23 NAW        -1.0530   -4.6270   12.9430 nu        1 2TA     -0.726300
     24 CAX        -2.3730   -4.6040   13.4080 ca        1 2TA      0.163600
     25 CBC        -2.9350   -5.7500   14.0010 ca        1 2TA     -0.083000
     26 CAY        -3.1460   -3.4100   13.3950 ca        1 2TA     -0.004000
     27 CAZ        -4.4290   -3.4000   13.9330 ca        1 2TA     -0.132000
     28 CBA        -4.9700   -4.5420   14.5100 ca        1 2TA     -0.022000
     29 CBB        -4.2260   -5.7350   14.5660 ca        1 2TA     -0.510500
     30 SBD        -4.8660   -7.0810   15.1690 sy        1 2TA      1.485200
     31 OBJ        -6.2440   -7.0840   15.2380 o         1 2TA     -0.576300
     32 OBK        -4.1590   -8.2350   14.8820 o         1 2TA     -0.576300
     33 NBE        -4.3200   -6.7710   16.9690 ny        1 2TA     -0.705900
     34 CBF        -5.1110   -7.4500   18.0710 c3        1 2TA      0.158200
     35 CBH        -6.4460   -6.7300   18.2870 c3        1 2TA     -0.131767
     36 CBI        -5.3720   -8.9140   17.7050 c3        1 2TA     -0.131767
     37 CBG        -4.3110   -7.4020   19.3780 c3        1 2TA     -0.131767
     38 H1         -0.3030   -1.4840   -1.3180 h1        1 2TA      0.049700
     39 H2         -0.7870    0.2240   -0.9380 h1        1 2TA      0.049700
     40 H3          1.4280    0.9100   -0.9880 hc        1 2TA      0.048700
     41 H4          1.8780   -0.7460   -1.5480 hc        1 2TA      0.048700
     42 H5          2.8580   -1.1560    0.5260 hc        1 2TA      0.048700
     43 H6          2.3500    0.4770    1.1020 hc        1 2TA      0.048700
     44 H7          1.1240   -2.1910    1.6600 h1        1 2TA      0.049700
     45 H8          0.7920   -0.5950    2.4650 h1        1 2TA      0.049700
     46 H10        -1.1620    0.7100    1.6340 h1        1 2TA      0.048700
     47 H11        -2.3270   -0.3160    0.6710 h1        1 2TA      0.048700
     48 H12        -3.0300   -0.7380    2.8410 h1        1 2TA      0.051200
     49 H13        -1.8570   -2.1380    2.6380 h1        1 2TA      0.051200
     50 H14         0.1720    0.2840    5.7560 ha        1 2TA      0.151500
     51 H15        -0.1590   -0.4240    8.1170 ha        1 2TA      0.142000
     52 H16        -3.0910   -2.2970    4.5160 ha        1 2TA      0.151500
     53 H17        -3.4190   -3.0190    6.8430 ha        1 2TA      0.142000
     54 H18        -3.0180   -2.3780    9.1860 hn        1 2TA      0.434800
     55 H19         2.1420   -3.4290    9.8310 h4        1 2TA      0.043100
     56 H20         2.7780   -4.5780   11.7890 hc        1 2TA      0.047700
     57 H21         1.7600   -4.2760   13.2550 hc        1 2TA      0.047700
     58 H22         1.5670   -5.8160   12.3120 hc        1 2TA      0.047700
     59 H23        -0.5400   -5.4610   13.1540 hn        1 2TA      0.437800
     60 H24        -2.3690   -6.7000   14.0130 ha        1 2TA      0.160000
     61 H25        -2.7360   -2.4810   12.9590 ha        1 2TA      0.190000
     62 H26        -5.0240   -2.4700   13.8970 ha        1 2TA      0.172000
     63 H27        -6.0000   -4.5200   14.9100 ha        1 2TA      0.163000
     64 H28        -4.3210   -5.7730   17.1690 hn        1 2TA      0.441300
     65 H29        -6.9920   -7.2490   19.1140 hc        1 2TA      0.075144
     66 H30        -7.0880   -6.7690   17.3720 hc        1 2TA      0.075144
     67 H31        -6.2880   -5.6670   18.5880 hc        1 2TA      0.075144
     68 H32        -6.0670   -8.9950   16.8330 hc        1 2TA      0.075144
     69 H33        -4.4230   -9.4560   17.4740 hc        1 2TA      0.075144
     70 H34        -5.8570   -9.4140   18.5800 hc        1 2TA      0.075144
     71 H35        -4.9190   -7.8760   20.1880 hc        1 2TA      0.075144
     72 H36        -3.3530   -7.9690   19.2870 hc        1 2TA      0.075144
     73 H37        -4.0900   -6.3490   19.6800 hc        1 2TA      0.075144
     74 HBE2       -3.3580   -7.0970   17.0590 hn        1 2TA      0.441300
@<TRIPOS>BOND
     1    1    2 1   
     2    1    5 1   
     3    1   38 1   
     4    1   39 1   
     5    2    3 1   
     6    2   40 1   
     7    2   41 1   
     8    3    4 1   
     9    3   42 1   
    10    3   43 1   
    11    4    5 1   
    12    4   44 1   
    13    4   45 1   
    14    5    6 1   
    15    6    7 1   
    16    6   46 1   
    17    6   47 1   
    18    7    8 1   
    19    7   48 1   
    20    7   49 1   
    21    8    9 1   
    22    9   10 ar  
    23    9   12 ar  
    24   10   11 ar  
    25   10   50 1   
    26   11   14 ar  
    27   11   51 1   
    28   12   13 ar  
    29   12   52 1   
    30   13   14 ar  
    31   13   53 1   
    32   14   15 1   
    33   15   16 1   
    34   15   54 1   
    35   16   17 ar  
    36   16   18 ar  
    37   17   22 ar  
    38   18   19 ar  
    39   19   20 ar  
    40   19   55 1   
    41   20   21 1   
    42   20   22 ar  
    43   21   56 1   
    44   21   57 1   
    45   21   58 1   
    46   22   23 1   
    47   23   24 1   
    48   23   59 1   
    49   24   25 ar  
    50   24   26 ar  
    51   25   29 ar  
    52   25   60 1   
    53   26   27 ar  
    54   26   61 1   
    55   27   28 ar  
    56   27   62 1   
    57   28   29 ar  
    58   28   63 1   
    59   29   30 1   
    60   30   31 2   
    61   30   32 2   
    62   30   33 1   
    63   33   34 1   
    64   33   64 1   
    65   33   74 1   
    66   34   35 1   
    67   34   36 1   
    68   34   37 1   
    69   35   65 1   
    70   35   66 1   
    71   35   67 1   
    72   36   68 1   
    73   36   69 1   
    74   36   70 1   
    75   37   71 1   
    76   37   72 1   
    77   37   73 1   
@<TRIPOS>SUBSTRUCTURE
     1 2TA         1 TEMP              0 ****  ****    0 ROOT
