@<TRIPOS>MOLECULE
2TB
   27    27     1     0     0
SMALL
bcc


@<TRIPOS>ATOM
      1 C1         -0.8220    0.6310   -1.0420 c3        1 2TB      0.122500
      2 C2          0.6960    0.6310   -1.0420 c3        1 2TB     -0.131400
      3 C3          1.2770    0.6310    0.3620 c3        1 2TB      0.122500
      4 C4          0.6960   -0.4740    1.2320 c3        1 2TB      0.112100
      5 C5         -0.8240   -0.4740    1.2320 c3        1 2TB      0.090100
      6 C6         -1.4040   -0.4750   -0.1710 c3        1 2TB      0.112100
      7 N1         -1.2850    0.4540   -2.3860 n4        1 2TB     -0.834600
      8 N3          2.6960    0.4550    0.2750 n4        1 2TB     -0.834600
      9 O5         -1.2820   -1.6290    1.9180 oh        1 2TB     -0.577800
     10 O4          1.1540   -0.2990    2.5620 oh        1 2TB     -0.613800
     11 O6         -2.8080   -0.3000   -0.0860 oh        1 2TB     -0.613800
     12 H1         -1.1380    1.4930   -0.7100 hx        1 2TB      0.136700
     13 H21         1.0120   -0.1630   -1.5140 hc        1 2TB      0.095700
     14 H22         1.0120    1.4260   -1.5140 hc        1 2TB      0.095700
     15 H3          1.0910    1.4930    0.7800 hx        1 2TB      0.136700
     16 H4          1.0120   -1.3360    0.9000 h1        1 2TB      0.090700
     17 H5         -1.1400    0.3200    1.7040 h1        1 2TB      0.095700
     18 H6         -1.2180   -1.3370   -0.5900 h1        1 2TB      0.090700
     19 HN11       -1.1190   -0.4010   -2.6550 hn        1 2TB      0.481800
     20 HN12       -2.1820    0.6150   -2.4230 hn        1 2TB      0.481800
     21 HN13       -0.8490    1.0360   -2.9370 hn        1 2TB      0.481800
     22 HN31        3.0430    1.0620   -0.3100 hn        1 2TB      0.481800
     23 HN32        3.0690    0.5790    1.0990 hn        1 2TB      0.481800
     24 HN33        2.8810   -0.3890   -0.0170 hn        1 2TB      0.481800
     25 HO5        -1.7590   -1.3840    2.6250 ho        1 2TB      0.457000
     26 HO4         1.4020   -1.0830    2.8950 ho        1 2TB      0.480000
     27 HO6        -3.2110   -1.0840   -0.1880 ho        1 2TB      0.480000
@<TRIPOS>BOND
     1    1    2 1   
     2    1    6 1   
     3    1    7 1   
     4    1   12 1   
     5    2    3 1   
     6    2   13 1   
     7    2   14 1   
     8    3    4 1   
     9    3    8 1   
    10    3   15 1   
    11    4    5 1   
    12    4   10 1   
    13    4   16 1   
    14    5    6 1   
    15    5    9 1   
    16    5   17 1   
    17    6   11 1   
    18    6   18 1   
    19    7   19 1   
    20    7   20 1   
    21    7   21 1   
    22    8   22 1   
    23    8   23 1   
    24    8   24 1   
    25    9   25 1   
    26   10   26 1   
    27   11   27 1   
@<TRIPOS>SUBSTRUCTURE
     1 2TB         1 TEMP              0 ****  ****    0 ROOT
