@<TRIPOS>MOLECULE
2TB
   27    27     1     0     0
SMALL
bcc


@<TRIPOS>ATOM
      1 C1          0.0530    0.0200   -0.0710 c3        1 2TB      0.122500
      2 C2          1.5830   -0.0950   -0.0760 c3        1 2TB     -0.131400
      3 C3          2.0880    0.0220    1.3680 c3        1 2TB      0.122500
      4 C4          1.4930   -1.1250    2.2280 c3        1 2TB      0.111600
      5 C5         -0.0430   -1.0060    2.2240 c3        1 2TB      0.090100
      6 C6         -0.5570   -1.1280    0.7770 c3        1 2TB      0.111600
      7 N1         -0.5320    0.0130   -1.4520 n4        1 2TB     -0.834600
      8 N3          3.5850    0.0190    1.4600 n4        1 2TB     -0.834600
      9 O5         -0.5420   -2.1210    2.9330 oh        1 2TB     -0.577800
     10 O4          2.0170   -0.9400    3.5260 oh        1 2TB     -0.613800
     11 O6         -1.9560   -0.9460    0.7160 oh        1 2TB     -0.613800
     12 H1         -0.2590    1.0080    0.3940 hx        1 2TB      0.136700
     13 H21         2.0270    0.7250   -0.7050 hc        1 2TB      0.095700
     14 H22         1.8950   -1.0820   -0.5160 hc        1 2TB      0.095700
     15 H3          1.7510    1.0110    1.8160 hx        1 2TB      0.136700
     16 H4          1.7960   -2.1340    1.8260 h1        1 2TB      0.090700
     17 H5         -0.3690   -0.0340    2.6840 h1        1 2TB      0.095700
     18 H6         -0.2780   -2.1370    0.3590 h1        1 2TB      0.090700
     19 HN11       -1.5650   -0.0080   -1.3590 hn        1 2TB      0.481800
     20 HN12       -0.2540    0.8540   -1.9690 hn        1 2TB      0.481800
     21 HN13       -0.2360   -0.8200   -1.9720 hn        1 2TB      0.481800
     22 HN31        3.8410   -0.0000    2.4640 hn        1 2TB      0.481800
     23 HN32        3.9780    0.8600    1.0250 hn        1 2TB      0.481800
     24 HN33        3.9780   -0.8130    1.0090 hn        1 2TB      0.481800
     25 HO5        -1.0690   -1.8000    3.6800 ho        1 2TB      0.457000
     26 HO4         1.6290   -1.6210    4.1030 ho        1 2TB      0.480000
     27 HO6        -2.3700   -1.6260    1.2750 ho        1 2TB      0.480000
@<TRIPOS>BOND
     1    1    2 1   
     2    1    6 1   
     3    1    7 1   
     4    1   12 1   
     5    2    3 1   
     6    2   13 1   
     7    2   14 1   
     8    3    4 1   
     9    3    8 1   
    10    3   15 1   
    11    4    5 1   
    12    4   10 1   
    13    4   16 1   
    14    5    6 1   
    15    5    9 1   
    16    5   17 1   
    17    6   11 1   
    18    6   18 1   
    19    7   19 1   
    20    7   20 1   
    21    7   21 1   
    22    8   22 1   
    23    8   23 1   
    24    8   24 1   
    25    9   25 1   
    26   10   26 1   
    27   11   27 1   
@<TRIPOS>SUBSTRUCTURE
     1 2TB         1 TEMP              0 ****  ****    0 ROOT
