@<TRIPOS>MOLECULE
2TB
   27    27     1     0     0
SMALL
bcc


@<TRIPOS>ATOM
      1 C1          0.0370   -0.0410   -0.0490 c3        1 2TB      0.122500
      2 C2          1.5710   -0.0530   -0.0660 c3        1 2TB     -0.131400
      3 C3          2.0770   -0.0410    1.3820 c3        1 2TB      0.122500
      4 C4          1.5650   -1.3030    2.1280 c3        1 2TB      0.112100
      5 C5          0.0250   -1.2870    2.1370 c3        1 2TB      0.090100
      6 C6         -0.4910   -1.3030    0.6850 c3        1 2TB      0.112100
      7 N1         -0.5560    0.0460   -1.4240 nz        1 2TB     -0.834600
      8 N3          3.5710    0.0460    1.4740 nz        1 2TB     -0.834600
      9 O5         -0.3950   -2.4950    2.7350 oh        1 2TB     -0.577800
     10 O4          2.0840   -1.2090    3.4380 oh        1 2TB     -0.613800
     11 O6         -1.8990   -1.2090    0.6420 oh        1 2TB     -0.613800
     12 H1         -0.3360    0.8750    0.5090 hx        1 2TB      0.136700
     13 H21         1.9550    0.8510   -0.6130 hc        1 2TB      0.095700
     14 H22         1.9450   -0.9700   -0.5980 hc        1 2TB      0.095700
     15 H3          1.6790    0.8750    1.9230 hx        1 2TB      0.136700
     16 H4          1.9310   -2.2460    1.6320 h1        1 2TB      0.090700
     17 H5         -0.3620   -0.3870    2.6880 h1        1 2TB      0.095700
     18 H6         -0.1480   -2.2460    0.1720 h1        1 2TB      0.090700
     19 HN11       -0.3380    0.9500   -1.8570 hn        1 2TB      0.481800
     20 HN12       -1.5840   -0.0520   -1.3340 hn        1 2TB      0.481800
     21 HN13       -0.2090   -0.7110   -2.0220 hn        1 2TB      0.481800
     22 HN31        4.0160   -0.7110    0.9440 hn        1 2TB      0.481800
     23 HN32        3.8350   -0.0520    2.4710 hn        1 2TB      0.481800
     24 HN33        3.9050    0.9500    1.1210 hn        1 2TB      0.481800
     25 HO5        -0.9400   -2.2830    3.5090 ho        1 2TB      0.457000
     26 HO4         1.7460   -1.9650    3.9480 ho        1 2TB      0.480000
     27 HO6        -2.2630   -1.9660    1.1330 ho        1 2TB      0.480000
@<TRIPOS>BOND
     1    1    2 1   
     2    1    6 1   
     3    1    7 1   
     4    1   12 1   
     5    2    3 1   
     6    2   13 1   
     7    2   14 1   
     8    3    4 1   
     9    3    8 1   
    10    3   15 1   
    11    4    5 1   
    12    4   10 1   
    13    4   16 1   
    14    5    6 1   
    15    5    9 1   
    16    5   17 1   
    17    6   11 1   
    18    6   18 1   
    19    7   19 1   
    20    7   20 1   
    21    7   21 1   
    22    8   22 1   
    23    8   23 1   
    24    8   24 1   
    25    9   25 1   
    26   10   26 1   
    27   11   27 1   
@<TRIPOS>SUBSTRUCTURE
     1 2TB         1 TEMP              0 ****  ****    0 ROOT
