@<TRIPOS>MOLECULE
2TB
   27    27     1     0     0
SMALL
bcc


@<TRIPOS>ATOM
      1 C1         -1.2420    1.0440    0.2580 c3        1 2TB      0.122500
      2 C2          0.0300    1.7420   -0.2380 c3        1 2TB     -0.131400
      3 C3          1.2480    0.9580    0.2670 c3        1 2TB      0.122500
      4 C4          1.2100   -0.4900   -0.2920 c3        1 2TB      0.112100
      5 C5         -0.0720   -1.1830    0.2060 c3        1 2TB      0.090100
      6 C6         -1.3000   -0.4040   -0.3010 c3        1 2TB      0.112100
      7 N1         -2.4920    1.7900   -0.1040 n4        1 2TB     -0.834600
      8 N3          2.5490    1.6170   -0.0850 n4        1 2TB     -0.834600
      9 O5         -0.1130   -2.4560   -0.4030 oh        1 2TB     -0.577800
     10 O4          2.3650   -1.1260    0.2150 oh        1 2TB     -0.613800
     11 O6         -2.4990   -0.9590    0.1980 oh        1 2TB     -0.613800
     12 H1         -1.2330    0.9840    1.3920 hx        1 2TB      0.136700
     13 H21         0.0360    1.7830   -1.3620 hc        1 2TB      0.095700
     14 H22         0.0650    2.7960    0.1510 hc        1 2TB      0.095700
     15 H3          1.2270    0.8990    1.4010 hx        1 2TB      0.136700
     16 H4          1.2290   -0.4920   -1.4190 h1        1 2TB      0.090700
     17 H5         -0.0790   -1.2530    1.3280 h1        1 2TB      0.095700
     18 H6         -1.3100   -0.4050   -1.4290 h1        1 2TB      0.090700
     19 HN11       -2.5420    1.9530   -1.1150 hn        1 2TB      0.481800
     20 HN12       -2.5330    2.6890    0.3880 hn        1 2TB      0.481800
     21 HN13       -3.3020    1.2080    0.1760 hn        1 2TB      0.481800
     22 HN31        2.6480    2.5110    0.4070 hn        1 2TB      0.481800
     23 HN32        3.3150    0.9810    0.2000 hn        1 2TB      0.481800
     24 HN33        2.6170    1.7760   -1.0960 hn        1 2TB      0.481800
     25 HO5        -0.1390   -3.1310    0.2930 ho        1 2TB      0.457000
     26 HO4         2.3500   -2.0520   -0.0820 ho        1 2TB      0.480000
     27 HO6        -2.5460   -1.8830   -0.1010 ho        1 2TB      0.480000
@<TRIPOS>BOND
     1    1    2 1   
     2    1    6 1   
     3    1    7 1   
     4    1   12 1   
     5    2    3 1   
     6    2   13 1   
     7    2   14 1   
     8    3    4 1   
     9    3    8 1   
    10    3   15 1   
    11    4    5 1   
    12    4   10 1   
    13    4   16 1   
    14    5    6 1   
    15    5    9 1   
    16    5   17 1   
    17    6   11 1   
    18    6   18 1   
    19    7   19 1   
    20    7   20 1   
    21    7   21 1   
    22    8   22 1   
    23    8   23 1   
    24    8   24 1   
    25    9   25 1   
    26   10   26 1   
    27   11   27 1   
@<TRIPOS>SUBSTRUCTURE
     1 2TB         1 TEMP              0 ****  ****    0 ROOT
