@<TRIPOS>MOLECULE
2TB
   27    27     1     0     0
SMALL
bcc


@<TRIPOS>ATOM
      1 C1          0.0420   -0.0420   -0.0540 c3        1 2TB      0.122500
      2 C2          1.5760   -0.0580   -0.0660 c3        1 2TB     -0.131400
      3 C3          2.0770   -0.0430    1.3840 c3        1 2TB      0.122500
      4 C4          1.5600   -1.3010    2.1320 c3        1 2TB      0.112100
      5 C5          0.0200   -1.2810    2.1360 c3        1 2TB      0.090100
      6 C6         -0.4910   -1.3000    0.6830 c3        1 2TB      0.112100
      7 N1         -0.5470    0.0420   -1.4310 n4        1 2TB     -0.834600
      8 N3          3.5710    0.0410    1.4800 n4        1 2TB     -0.834600
      9 O5         -0.4050   -2.4860    2.7370 oh        1 2TB     -0.577800
     10 O4          2.0750   -1.2050    3.4440 oh        1 2TB     -0.613800
     11 O6         -1.8990   -1.2030    0.6360 oh        1 2TB     -0.613800
     12 H1         -0.3310    0.8760    0.5010 hx        1 2TB      0.136700
     13 H21         1.9640    0.8430   -0.6140 hc        1 2TB      0.095700
     14 H22         1.9490   -0.9770   -0.5940 hc        1 2TB      0.095700
     15 H3          1.6790    0.8760    1.9210 hx        1 2TB      0.136700
     16 H4          1.9250   -2.2470    1.6400 h1        1 2TB      0.090700
     17 H5         -0.3670   -0.3790    2.6830 h1        1 2TB      0.095700
     18 H6         -0.1490   -2.2460    0.1740 h1        1 2TB      0.090700
     19 HN11       -0.3250    0.9440   -1.8660 hn        1 2TB      0.481800
     20 HN12       -1.5750   -0.0530   -1.3430 hn        1 2TB      0.481800
     21 HN13       -0.2000   -0.7180   -2.0250 hn        1 2TB      0.481800
     22 HN31        3.9080    0.9420    1.1260 hn        1 2TB      0.481800
     23 HN32        4.0160   -0.7190    0.9540 hn        1 2TB      0.481800
     24 HN33        3.8320   -0.0550    2.4780 hn        1 2TB      0.481800
     25 HO5        -0.9500   -2.2710    3.5090 ho        1 2TB      0.457000
     26 HO4         1.7340   -1.9590    3.9540 ho        1 2TB      0.480000
     27 HO6        -2.2670   -1.9580    1.1270 ho        1 2TB      0.480000
@<TRIPOS>BOND
     1    1    2 1   
     2    1    6 1   
     3    1    7 1   
     4    1   12 1   
     5    2    3 1   
     6    2   13 1   
     7    2   14 1   
     8    3    4 1   
     9    3    8 1   
    10    3   15 1   
    11    4    5 1   
    12    4   10 1   
    13    4   16 1   
    14    5    6 1   
    15    5    9 1   
    16    5   17 1   
    17    6   11 1   
    18    6   18 1   
    19    7   19 1   
    20    7   20 1   
    21    7   21 1   
    22    8   22 1   
    23    8   23 1   
    24    8   24 1   
    25    9   25 1   
    26   10   26 1   
    27   11   27 1   
@<TRIPOS>SUBSTRUCTURE
     1 2TB         1 TEMP              0 ****  ****    0 ROOT
