@<TRIPOS>MOLECULE
2TC
   53    56     1     0     0
SMALL
bcc


@<TRIPOS>ATOM
      1 C1         -2.6550    0.6720   -1.6070 c         1 2TC      0.590300
      2 O1         -2.8280    1.0770   -2.7590 o         1 2TC     -0.498100
      3 C2         -3.1250    1.3920   -0.4160 ce        1 2TC     -0.200900
      4 C21        -3.2920    2.7950   -0.5170 cg        1 2TC      0.196500
      5 N21        -3.4230    3.9470   -0.6160 n1        1 2TC     -0.349800
      6 C3         -3.4180    0.7030    0.7210 c2        1 2TC      0.213900
      7 O3         -3.8730    1.2480    1.8790 oh        1 2TC     -0.479100
      8 C4         -3.2370   -0.8050    0.8300 c3        1 2TC      0.225700
      9 N4         -4.4440   -1.4940    0.3650 n3        1 2TC     -0.717600
     10 C43        -4.2620   -2.9160    0.1630 c3        1 2TC      0.145600
     11 C42        -5.5890   -1.2070    1.2070 c3        1 2TC      0.145600
     12 C41        -1.9290   -1.1560    0.0750 c3        1 2TC     -0.045700
     13 C5         -0.7740   -0.5960    0.8980 c3        1 2TC     -0.088400
     14 C51         0.5740   -0.7870    0.2260 c3        1 2TC     -0.049700
     15 C6          1.7130   -0.2910    1.1300 c3        1 2TC      0.207100
     16 C62         1.7690   -1.0390    2.4530 c3        1 2TC     -0.101100
     17 O6          1.4570    1.1240    1.4490 os        1 2TC     -0.409900
     18 C61         3.0660   -0.2910    0.4390 ca        1 2TC     -0.048300
     19 C7          3.8420   -1.3060   -0.0840 ca        1 2TC     -0.005600
     20 C8          5.0970   -0.9830   -0.6550 ca        1 2TC     -0.059000
     21 C9          5.5600    0.3190   -0.6930 ca        1 2TC     -0.157000
     22 C10         4.7710    1.3670   -0.1500 ca        1 2TC      0.223100
     23 O10         5.2800    2.6300   -0.2090 oh        1 2TC     -0.477100
     24 C1A         3.5400    1.0480    0.4070 ca        1 2TC     -0.278600
     25 C1B         0.5720   -0.0620   -1.1090 c3        1 2TC     -0.181400
     26 C12        -0.5310   -0.5750   -1.9790 c         1 2TC      0.551100
     27 O12        -0.3460   -0.9250   -3.1470 o         1 2TC     -0.497100
     28 C1C        -1.9430   -0.6720   -1.3830 c3        1 2TC     -0.012200
     29 CL7         3.3460   -2.9280   -0.0630 cl        1 2TC     -0.071400
     30 C11         2.5280    1.9030    1.0380 c         1 2TC      0.742200
     31 O1C        -2.6460   -1.6710   -2.1180 oh        1 2TC     -0.576800
     32 H3         -3.9640    2.2120    1.7770 ho        1 2TC      0.446000
     33 H4         -3.0560   -1.0400    1.9290 h1        1 2TC      0.056700
     34 H41        -1.8190   -2.2780    0.0420 hc        1 2TC      0.089700
     35 H421       -5.7280   -0.0970    1.2890 h1        1 2TC      0.042533
     36 H422       -6.5010   -1.6440    0.7200 h1        1 2TC      0.042533
     37 H423       -5.4940   -1.6300    2.2440 h1        1 2TC      0.042533
     38 H431       -3.7930   -3.4320    1.0450 h1        1 2TC      0.042533
     39 H432       -5.2630   -3.3860   -0.0310 h1        1 2TC      0.042533
     40 H433       -3.6220   -3.0780   -0.7450 h1        1 2TC      0.042533
     41 H51C       -0.9280    0.4990    1.0950 hc        1 2TC      0.065200
     42 H52C       -0.7700   -1.1190    1.8910 hc        1 2TC      0.065200
     43 H51         0.7540   -1.8860    0.0490 hc        1 2TC      0.076700
     44 H1B         0.4240    1.0400   -0.9460 hc        1 2TC      0.087700
     45 H621        1.6920   -2.1370    2.2700 hc        1 2TC      0.060367
     46 H622        2.7290   -0.8230    2.9790 hc        1 2TC      0.060367
     47 H623        0.9290   -0.7090    3.1110 hc        1 2TC      0.060367
     48 H8          5.7150   -1.7920   -1.0780 ha        1 2TC      0.160000
     49 H9          6.5350    0.5660   -1.1380 ha        1 2TC      0.168000
     50 H10         4.6360    3.2420    0.1920 ho        1 2TC      0.456000
     51 H2B         1.5570   -0.2030   -1.6310 hc        1 2TC      0.087700
     52 H1C        -2.6210   -1.4070   -3.0520 ho        1 2TC      0.438000
     53 O11         2.4650    3.1080    1.2530 o         1 2TC     -0.574500
@<TRIPOS>BOND
     1    1    2 2   
     2    1    3 1   
     3    1   28 1   
     4    3    4 1   
     5    3    6 2   
     6    4    5 3   
     7    6    7 1   
     8    6    8 1   
     9    7   32 1   
    10    8    9 1   
    11    8   12 1   
    12    8   33 1   
    13    9   10 1   
    14    9   11 1   
    15   10   38 1   
    16   10   39 1   
    17   10   40 1   
    18   11   35 1   
    19   11   36 1   
    20   11   37 1   
    21   12   13 1   
    22   12   28 1   
    23   12   34 1   
    24   13   14 1   
    25   13   41 1   
    26   13   42 1   
    27   14   15 1   
    28   14   25 1   
    29   14   43 1   
    30   15   16 1   
    31   15   17 1   
    32   15   18 1   
    33   16   45 1   
    34   16   46 1   
    35   16   47 1   
    36   17   30 1   
    37   18   19 ar  
    38   18   24 ar  
    39   19   20 ar  
    40   19   29 1   
    41   20   21 ar  
    42   20   48 1   
    43   21   22 ar  
    44   21   49 1   
    45   22   23 1   
    46   22   24 ar  
    47   23   50 1   
    48   24   30 1   
    49   25   26 1   
    50   25   44 1   
    51   25   51 1   
    52   26   27 2   
    53   26   28 1   
    54   28   31 1   
    55   30   53 2   
    56   31   52 1   
@<TRIPOS>SUBSTRUCTURE
     1 2TC         1 TEMP              0 ****  ****    0 ROOT
