@<TRIPOS>MOLECULE
2TC
   53    52     1     0     0
SMALL
bcc


@<TRIPOS>ATOM
      1 C1          1.3490   -0.5460   -3.3530 c1        1 2TC      0.275000
      2 O1          0.7560   -0.8700   -4.3580 o         1 2TC     -0.252000
      3 C2          2.9560   -0.4920   -3.3480 c1        1 2TC     -0.238000
      4 C21         3.7330   -0.9230   -4.5840 c1        1 2TC     -0.094000
      5 N21         4.3150   -1.2460   -5.5120 n1        1 2TC     -0.029000
      6 C3          3.7210   -0.4610   -1.8430 c1        1 2TC      0.143000
      7 O3          5.0890   -0.8020   -1.7380 o         1 2TC     -0.222500
      8 C4          2.7890   -0.5110   -0.5540 c3        1 2TC      0.026000
      9 N4          3.4160    0.1690    0.5460 n3        1 2TC     -0.253000
     10 C43         4.1780    1.2600    0.0540 c3        1 2TC     -0.123000
     11 C42         4.2850   -0.7510    1.2530 c3        1 2TC     -0.123000
     12 C41         1.3770    0.0340   -0.8320 c3        1 2TC     -0.076000
     13 C5          0.5640   -0.0100    0.4900 c3        1 2TC     -0.150000
     14 C51        -0.8640    0.5910    0.3420 c3        1 2TC     -0.090000
     15 C6         -1.6130    0.3640    1.6130 c3        1 2TC      0.127000
     16 C62        -1.0420    1.2240    2.6990 c3        1 2TC     -0.218000
     17 O6         -1.5200   -1.0030    1.9870 os        1 2TC     -0.253000
     18 C61        -3.0680    0.6970    1.4130 c2        1 2TC     -0.042000
     19 C7         -3.7220    1.8990    1.1080 c2        1 2TC     -0.087000
     20 C8         -5.1010    1.9380    1.0450 c1        1 2TC     -0.052000
     21 C9         -5.8360    0.7910    1.2840 c1        1 2TC     -0.215000
     22 C10        -5.1900   -0.3950    1.5850 c1        1 2TC      0.163000
     23 O10        -5.9280   -1.5740    1.7360 o         1 2TC     -0.222500
     24 C1A        -3.7930   -0.4340    1.6490 c2        1 2TC     -0.184000
     25 O11        -3.1270   -2.6760    2.3260 o         1 2TC     -0.263000
     26 C1B        -1.6740   -0.0280   -0.8290 c3        1 2TC     -0.211000
     27 C12        -0.8010    0.0300   -2.1610 c2        1 2TC      0.214000
     28 O12        -1.3460    0.0060   -3.2460 o         1 2TC     -0.244000
     29 C1C         0.6320   -0.5760   -1.9890 c3        1 2TC     -0.010000
     30 CL7        -2.8040    3.3630    0.9140 cl        1 2TC      0.006000
     31 C11        -2.8300   -1.5300    2.0460 c2        1 2TC      0.357000
     32 O1C         0.4550   -1.9290   -1.6680 oh        1 2TC     -0.300000
     33 H3          5.2790   -1.4500   -2.3240 ho        1 2TC      0.236500
     34 H4          2.7330   -1.4200   -0.2010 h1        1 2TC      0.151000
     35 H41         1.4900    0.9820   -1.0540 hc        1 2TC      0.105000
     36 H421        4.1440   -1.6690    0.9090 h1        1 2TC      0.080833
     37 H422        4.0740   -0.7250    2.2230 h1        1 2TC      0.080833
     38 H423        5.2160   -0.4910    1.1150 h1        1 2TC      0.080833
     39 H431        5.1350    1.0870    0.2060 h1        1 2TC      0.080833
     40 H432        4.0130    1.3660   -0.9100 h1        1 2TC      0.080833
     41 H433        3.9160    2.0770    0.5220 h1        1 2TC      0.080833
     42 H51C        0.4850   -0.9390    0.7790 hc        1 2TC      0.120500
     43 H52C        1.0490    0.4950    1.1770 hc        1 2TC      0.120500
     44 H51        -0.7840    1.5590    0.1920 hc        1 2TC      0.106000
     45 H1B        -1.9710   -0.9370   -0.6340 hc        1 2TC      0.126500
     46 H621       -0.3440    0.7390    3.1610 hc        1 2TC      0.099000
     47 H622       -0.6710    2.0350    2.3090 hc        1 2TC      0.099000
     48 H623       -1.7590    1.4640    3.3410 hc        1 2TC      0.099000
     49 H8         -5.5530    2.7690    0.8340 ha        1 2TC      0.158000
     50 H9         -6.8050    0.8180    1.2400 ha        1 2TC      0.150000
     51 H10        -6.5660   -1.4480    2.3410 ho        1 2TC      0.236500
     52 H2B        -2.5330    0.4330   -0.9430 hc        1 2TC      0.126500
     53 H1C         0.0970   -2.3540   -2.3630 ho        1 2TC      0.225000
@<TRIPOS>BOND
     1    1    2 1   
     2    1   29 1   
     3    3    4 1   
     4    3    6 1   
     5    4    5 1   
     6    6    8 1   
     7    7   33 1   
     8    8    9 1   
     9    8   12 1   
    10    8   34 1   
    11    9   10 1   
    12    9   11 1   
    13   10   39 1   
    14   10   40 1   
    15   10   41 1   
    16   11   36 1   
    17   11   37 1   
    18   11   38 1   
    19   12   13 1   
    20   12   29 1   
    21   12   35 1   
    22   13   14 1   
    23   13   42 1   
    24   13   43 1   
    25   14   15 1   
    26   14   26 1   
    27   14   44 1   
    28   15   16 1   
    29   15   17 1   
    30   15   18 1   
    31   16   46 1   
    32   16   47 1   
    33   16   48 1   
    34   17   31 1   
    35   18   19 1   
    36   18   24 1   
    37   19   20 1   
    38   19   30 1   
    39   20   49 1   
    40   21   22 1   
    41   21   50 1   
    42   22   24 1   
    43   23   51 1   
    44   24   31 1   
    45   25   31 1   
    46   26   27 1   
    47   26   45 1   
    48   26   52 1   
    49   27   28 1   
    50   27   29 1   
    51   29   32 1   
    52   32   53 1   
@<TRIPOS>SUBSTRUCTURE
     1 2TC         1 TEMP              0 ****  ****    0 ROOT
