@<TRIPOS>MOLECULE
2TC
   54    68     1     0     0
SMALL
bcc


@<TRIPOS>ATOM
      1 C1          0.0000    0.0000    0.0000 c2        1 2TC      0.225000
      2 O1         -0.6240   -0.2150   -1.0200 o         1 2TC     -0.180000
      3 C2          1.4640    0.0000    0.0000 c2        1 2TC     -0.052000
      4 C21         2.1790    0.0010   -1.2410 c1        1 2TC     -0.154000
      5 N21         2.7320   -0.0100   -2.2330 n1        1 2TC      0.100000
      6 C3          2.1540    0.0000    1.1870 DU        1 2TC      0.003000
      7 O3          3.4960   -0.0150    1.1550 oh        1 2TC     -0.275000
      8 C4          1.4630    0.0170    2.5180 DU        1 2TC     -0.583000
      9 N4          1.4450    1.3930    3.0330 nx        1 2TC      1.191000
     10 C43         0.8270    1.4490    4.3650 c3        1 2TC     -0.218500
     11 C42         2.7980    1.9640    3.0550 c3        1 2TC     -0.218500
     12 C41         0.0310   -0.4940    2.4110 DU        1 2TC     -0.233000
     13 C5          0.0180   -1.9850    2.0840 DU        1 2TC     -0.243000
     14 C51        -1.4210   -2.5060    2.1160 DU        1 2TC     -0.385000
     15 C6         -1.4240   -4.0150    1.8610 DU        1 2TC      0.416000
     16 C62        -0.5920   -4.7280    2.9300 c3        1 2TC     -0.317000
     17 O6         -0.8880   -4.2990    0.5410 os        1 2TC     -0.204000
     18 C61        -2.8370   -4.5390    1.8700 c2        1 2TC     -0.166000
     19 C7         -3.8300   -4.5620    2.8220 c3        1 2TC     -0.032000
     20 C8         -5.0610   -5.1300    2.5270 c3        1 2TC     -0.076000
     21 C9         -5.2980   -5.6740    1.2800 c2        1 2TC     -0.494000
     22 C10        -4.3060   -5.6580    0.3110 c3        1 2TC      0.221000
     23 O10        -4.5410   -6.1940   -0.9130 oh        1 2TC     -0.223000
     24 C1A        -3.0600   -5.0860    0.6030 c2        1 2TC     -0.205000
     25 C1B        -2.2440   -1.8050    1.0310 c3        1 2TC     -0.211000
     26 C12        -2.1120   -0.3090    1.2080 c2        1 2TC      0.228000
     27 O12        -3.0870    0.4000    1.2690 o         1 2TC     -0.151000
     28 C1C        -0.7140    0.2800    1.3070 DU        1 2TC      0.119000
     29 Cl7        -3.5430   -3.8800    4.3920 cl        1 2TC      0.148000
     30 C11        -1.8310   -4.9180   -0.1900 c2        1 2TC      0.414000
     31 O1C        -0.7400    1.6810    1.5860 oh        1 2TC     -0.460000
     32 H3          2.8960   -0.6780    0.8550 DU        1 2TC      0.292000
     33 H4          2.3170   -0.3130    1.9390 DU        1 2TC      0.133000
     34 H41         1.0340   -0.5580    2.8150 DU        1 2TC      0.216000
     35 H421        1.9140    1.3430    3.1380 hx        1 2TC      0.054500
     36 H422        3.0730    2.2810    2.0560 hx        1 2TC      0.054500
     37 H423        3.5000    1.2150    3.4020 hx        1 2TC      0.054500
     38 H431        1.6900    2.0430    4.0890 hx        1 2TC      0.054500
     39 H432        0.5700    2.4370    4.0030 hx        1 2TC      0.054500
     40 H433        1.7800    1.0030    4.6250 hx        1 2TC      0.054500
     41 H51C        0.2360   -1.1520    2.7410 DU        1 2TC      0.223000
     42 H52C        0.6090   -2.5190    2.8180 ha        1 2TC      0.143000
     43 H51        -0.4860   -2.3230    1.6000 DU        1 2TC      0.165000
     44 H1B        -2.0500   -2.0530    2.0680 DU        1 2TC      0.187000
     45 H621       -1.2910   -4.0450    2.4630 DU        1 2TC      0.074000
     46 H622       -0.6720   -4.1910    3.8680 hc        1 2TC      0.072500
     47 H623        0.4450   -4.7600    2.6200 hc        1 2TC      0.072500
     48 H8         -3.9990   -5.2890    2.6650 DU        1 2TC      0.182000
     49 H9         -5.5740   -5.4070    2.2930 DU        1 2TC      0.242000
     50 H10        -5.1620   -6.1670   -0.2040 DU        1 2TC      0.318000
     51 H2B        -2.7180   -2.7240    0.7070 hc        1 2TC      0.199000
     52 H1C        -0.9920    0.8400    1.2430 DU        1 2TC      0.333000
     53 O11        -1.6890   -5.2860   -1.3390 o         1 2TC     -0.218000
     54 H411        0.8880    1.9460    2.4120 hn        1 2TC      0.054000
@<TRIPOS>BOND
     1    1    2 1   
     2    1    3 1   
     3    1   28 1   
     4    3    4 1   
     5    3    6 1   
     6    4    5 1   
     7    6    7 1   
     8    6    8 1   
     9    6   32 1   
    10    6   33 1   
    11    7   32 1   
    12    8    9 1   
    13    8   12 1   
    14    8   33 1   
    15    8   34 1   
    16    9   10 1   
    17    9   11 1   
    18    9   54 1   
    19   10   38 1   
    20   10   39 1   
    21   10   40 1   
    22   11   35 1   
    23   11   36 1   
    24   11   37 1   
    25   12   13 1   
    26   12   28 1   
    27   12   34 1   
    28   12   41 1   
    29   13   14 1   
    30   13   41 1   
    31   13   42 1   
    32   13   43 1   
    33   14   15 1   
    34   14   25 1   
    35   14   43 1   
    36   14   44 1   
    37   15   16 1   
    38   15   17 1   
    39   15   18 1   
    40   15   45 1   
    41   16   45 1   
    42   16   46 1   
    43   16   47 1   
    44   17   30 1   
    45   18   19 1   
    46   18   24 1   
    47   19   20 1   
    48   19   29 1   
    49   19   48 1   
    50   20   21 1   
    51   20   48 1   
    52   20   49 1   
    53   21   22 1   
    54   21   49 1   
    55   22   23 1   
    56   22   24 1   
    57   22   50 1   
    58   23   50 1   
    59   24   30 1   
    60   25   26 1   
    61   25   44 1   
    62   25   51 1   
    63   26   27 1   
    64   26   28 1   
    65   28   31 1   
    66   28   52 1   
    67   30   53 1   
    68   31   52 1   
@<TRIPOS>SUBSTRUCTURE
     1 2TC         1 TEMP              0 ****  ****    0 ROOT
