@<TRIPOS>MOLECULE
2TD
   38    37     1     0     0
SMALL
bcc


@<TRIPOS>ATOM
      1 O1         -0.0440    0.2570    0.1610 o         1 2TD     -0.530100
      2 C2          1.1710    0.0680    0.0450 c         1 2TD      0.564100
      3 C1          2.0550   -0.1660    1.2300 c3        1 2TD     -0.205100
      4 C3          1.8780    0.0580   -1.2800 c3        1 2TD     -0.182400
      5 C4          0.9240    0.0010   -2.4520 c3        1 2TD     -0.075400
      6 C5          1.6710    0.0500   -3.7670 c3        1 2TD     -0.078400
      7 C6          0.7160   -0.0150   -4.9400 c3        1 2TD     -0.078400
      8 C7          1.4600    0.0350   -6.2570 c3        1 2TD     -0.078400
      9 C8          0.5040   -0.0280   -7.4300 c3        1 2TD     -0.079400
     10 C9          1.2480    0.0200   -8.7470 c3        1 2TD     -0.079400
     11 C10         0.2910   -0.0410   -9.9190 c3        1 2TD     -0.076400
     12 C11         1.0390    0.0040  -11.2370 c3        1 2TD     -0.052200
     13 C12         0.1120   -0.0700  -12.3930 c2        1 2TD     -0.164200
     14 C13         0.1980    0.7120  -13.4660 c2        1 2TD     -0.225000
     15 H1          2.9610    0.4830    1.1680 hc        1 2TD      0.063033
     16 H1A         2.3810   -1.2350    1.2420 hc        1 2TD      0.063033
     17 H1B         1.5110    0.0540    2.1800 hc        1 2TD      0.063033
     18 H3          2.5050    0.9890   -1.3420 hc        1 2TD      0.063700
     19 H3A         2.5780   -0.8180   -1.3110 hc        1 2TD      0.063700
     20 H4          0.3160   -0.9400   -2.3930 hc        1 2TD      0.055200
     21 H4A         0.2030    0.8590   -2.3870 hc        1 2TD      0.055200
     22 H5          2.3940   -0.8060   -3.8240 hc        1 2TD      0.037200
     23 H5A         2.2730    0.9950   -3.8250 hc        1 2TD      0.037200
     24 H6         -0.0070    0.8420   -4.8830 hc        1 2TD      0.042700
     25 H6A         0.1140   -0.9600   -4.8830 hc        1 2TD      0.042700
     26 H7          2.0620    0.9800   -6.3140 hc        1 2TD      0.039200
     27 H7A         2.1820   -0.8210   -6.3140 hc        1 2TD      0.039200
     28 H8         -0.2180    0.8290   -7.3730 hc        1 2TD      0.041200
     29 H8A        -0.0990   -0.9720   -7.3720 hc        1 2TD      0.041200
     30 H9          1.9680   -0.8380   -8.8040 hc        1 2TD      0.039200
     31 H9A         1.8520    0.9640   -8.8030 hc        1 2TD      0.039200
     32 H10        -0.4260    0.8190   -9.8650 hc        1 2TD      0.042200
     33 H10A       -0.3150   -0.9830   -9.8610 hc        1 2TD      0.042200
     34 H11         1.6580    0.9400  -11.2840 hc        1 2TD      0.046200
     35 H11A        1.7520   -0.8640  -11.2900 hc        1 2TD      0.046200
     36 H12        -0.6700   -0.8430  -12.3120 ha        1 2TD      0.119000
     37 H13         0.9620    1.4930  -13.5750 ha        1 2TD      0.110500
     38 H13A       -0.4940    0.6210  -14.3130 ha        1 2TD      0.110500
@<TRIPOS>BOND
     1    1    2 2   
     2    2    3 1   
     3    2    4 1   
     4    3   15 1   
     5    3   16 1   
     6    3   17 1   
     7    4    5 1   
     8    4   18 1   
     9    4   19 1   
    10    5    6 1   
    11    5   20 1   
    12    5   21 1   
    13    6    7 1   
    14    6   22 1   
    15    6   23 1   
    16    7    8 1   
    17    7   24 1   
    18    7   25 1   
    19    8    9 1   
    20    8   26 1   
    21    8   27 1   
    22    9   10 1   
    23    9   28 1   
    24    9   29 1   
    25   10   11 1   
    26   10   30 1   
    27   10   31 1   
    28   11   12 1   
    29   11   32 1   
    30   11   33 1   
    31   12   13 1   
    32   12   34 1   
    33   12   35 1   
    34   13   14 2   
    35   13   36 1   
    36   14   37 1   
    37   14   38 1   
@<TRIPOS>SUBSTRUCTURE
     1 2TD         1 TEMP              0 ****  ****    0 ROOT
