@<TRIPOS>MOLECULE
2TD
   38    35     1     0     0
SMALL
bcc


@<TRIPOS>ATOM
      1 O1         -1.2170    0.0320    5.9540 o         1 2TD     -0.291000
      2 C2         -0.3610    0.8900    5.8740 c1        1 2TD      0.225000
      3 C1         -0.1180    1.8270    7.0370 c2        1 2TD     -0.273000
      4 C3          0.4650    1.0190    4.6130 c3        1 2TD     -0.211000
      5 C4         -0.2240    0.2890    3.4810 c3        1 2TD     -0.154000
      6 C5          0.5110    0.5570    2.1860 c3        1 2TD     -0.157000
      7 C6         -0.0550   -0.3230    1.0940 c3        1 2TD     -0.157000
      8 C7          0.5540    0.0670   -0.2350 c3        1 2TD     -0.157000
      9 C8         -0.0100   -0.8150   -1.3270 c3        1 2TD     -0.158000
     10 C9          0.3830   -0.2580   -2.6780 c3        1 2TD     -0.158000
     11 C10        -0.1540   -1.1580   -3.7690 c3        1 2TD     -0.155000
     12 C11         0.0490   -0.4950   -5.1140 c3        1 2TD     -0.135000
     13 C12        -0.4450   -1.4150   -6.2090 c2        1 2TD     -0.160000
     14 C13        -0.7690   -0.9120   -7.4160 c1        1 2TD     -0.225000
     15 H1          0.6940    1.5530    7.5120 ha        1 2TD      0.102333
     16 H1A        -0.0090    2.7410    6.7020 ha        1 2TD      0.102333
     17 H1B        -0.8820    1.7920    7.6490 ha        1 2TD      0.102333
     18 H3          0.5600    1.9640    4.3810 hc        1 2TD      0.103000
     19 H3A         1.3500    0.6290    4.7610 hc        1 2TD      0.103000
     20 H4         -0.2220   -0.6720    3.6640 hc        1 2TD      0.094500
     21 H4A        -1.1470    0.6040    3.4040 hc        1 2TD      0.094500
     22 H5          1.4610    0.3590    2.3040 hc        1 2TD      0.076500
     23 H5A         0.4010    1.4960    1.9380 hc        1 2TD      0.076500
     24 H6         -1.0260   -0.2090    1.0530 hc        1 2TD      0.082000
     25 H6A         0.1550   -1.2590    1.2870 hc        1 2TD      0.082000
     26 H7          0.3430    1.0020   -0.4290 hc        1 2TD      0.078500
     27 H7A         1.5250   -0.0460   -0.1930 hc        1 2TD      0.078500
     28 H8          0.3470   -1.7210   -1.2320 hc        1 2TD      0.080500
     29 H8A        -0.9850   -0.8400   -1.2550 hc        1 2TD      0.080500
     30 H9          0.0080    0.6390   -2.7820 hc        1 2TD      0.078500
     31 H9A         1.3580   -0.2140   -2.7410 hc        1 2TD      0.078500
     32 H10         0.3230   -2.0120   -3.7520 hc        1 2TD      0.081500
     33 H10A       -1.1080   -1.3140   -3.6230 hc        1 2TD      0.081500
     34 H11        -0.4530    0.3440   -5.1430 hc        1 2TD      0.085500
     35 H11A        1.0000   -0.3110   -5.2470 hc        1 2TD      0.085500
     36 H12        -0.5280   -2.3730   -6.0410 ha        1 2TD      0.119000
     37 H13        -0.6860    0.0480   -7.5850 DU        1 2TD      0.110000
     38 H13A       -1.0880   -1.5070   -8.1240 ha        1 2TD      0.111000
@<TRIPOS>BOND
     1    1    2 1   
     2    2    4 1   
     3    3   15 1   
     4    3   16 1   
     5    3   17 1   
     6    4    5 1   
     7    4   18 1   
     8    4   19 1   
     9    5    6 1   
    10    5   20 1   
    11    5   21 1   
    12    6    7 1   
    13    6   22 1   
    14    6   23 1   
    15    7    8 1   
    16    7   24 1   
    17    7   25 1   
    18    8    9 1   
    19    8   26 1   
    20    8   27 1   
    21    9   10 1   
    22    9   28 1   
    23    9   29 1   
    24   10   11 1   
    25   10   30 1   
    26   10   31 1   
    27   11   12 1   
    28   11   32 1   
    29   11   33 1   
    30   12   13 1   
    31   12   34 1   
    32   12   35 1   
    33   13   14 1   
    34   13   36 1   
    35   14   38 1   
@<TRIPOS>SUBSTRUCTURE
     1 2TD         1 TEMP              0 ****  ****    0 ROOT
