@<TRIPOS>MOLECULE
2TD
   38    37     1     0     0
SMALL
bcc


@<TRIPOS>ATOM
      1 O1         -5.7710   -1.3910    0.3620 o         1 2TD     -0.530100
      2 C2         -5.7380   -0.1910    0.0760 c         1 2TD      0.564100
      3 C1         -6.9770    0.5850   -0.2450 c3        1 2TD     -0.205100
      4 C3         -4.4660    0.6060    0.0270 c3        1 2TD     -0.182400
      5 C4         -3.2290   -0.2640    0.0460 c3        1 2TD     -0.075400
      6 C5         -1.9700    0.5750    0.0580 c3        1 2TD     -0.078400
      7 C6         -0.7330   -0.2970    0.0660 c3        1 2TD     -0.078400
      8 C7          0.5290    0.5400    0.0820 c3        1 2TD     -0.078400
      9 C8          1.7660   -0.3320    0.0890 c3        1 2TD     -0.079400
     10 C9          3.0270    0.5040    0.1050 c3        1 2TD     -0.079400
     11 C10         4.2640   -0.3680    0.1110 c3        1 2TD     -0.076400
     12 C11         5.5260    0.4720    0.1310 c3        1 2TD     -0.052200
     13 C12         6.7440   -0.3740    0.1520 c2        1 2TD     -0.164200
     14 C13         7.8120   -0.1580   -0.6110 c2        1 2TD     -0.225000
     15 H1         -7.8910   -0.0040    0.0100 hc        1 2TD      0.063033
     16 H1A        -6.9880    1.5440    0.3250 hc        1 2TD      0.063033
     17 H1B        -6.9940    0.8180   -1.3380 hc        1 2TD      0.063033
     18 H3         -4.4730    1.2440   -0.8960 hc        1 2TD      0.063700
     19 H3A        -4.4590    1.2980    0.9120 hc        1 2TD      0.063700
     20 H4         -3.2560   -0.9290    0.9490 hc        1 2TD      0.055200
     21 H4A        -3.2320   -0.9360   -0.8530 hc        1 2TD      0.055200
     22 H5         -1.9530    1.2440   -0.8440 hc        1 2TD      0.037200
     23 H5A        -1.9680    1.2400    0.9620 hc        1 2TD      0.037200
     24 H6         -0.7510   -0.9660    0.9660 hc        1 2TD      0.042200
     25 H6A        -0.7340   -0.9600   -0.8390 hc        1 2TD      0.042200
     26 H7          0.5470    1.2110   -0.8180 hc        1 2TD      0.038700
     27 H7A         0.5300    1.2020    0.9870 hc        1 2TD      0.038700
     28 H8          1.7470   -1.0030    0.9880 hc        1 2TD      0.040700
     29 H8A         1.7650   -0.9940   -0.8170 hc        1 2TD      0.040700
     30 H9          3.0450    1.1760   -0.7930 hc        1 2TD      0.039700
     31 H9A         3.0290    1.1650    1.0120 hc        1 2TD      0.039700
     32 H10         4.2450   -1.0420    1.0090 hc        1 2TD      0.042200
     33 H10A        4.2650   -1.0270   -0.7970 hc        1 2TD      0.042200
     34 H11         5.5330    1.1560   -0.7590 hc        1 2TD      0.046700
     35 H11A        5.5240    1.1240    1.0470 hc        1 2TD      0.046700
     36 H12         6.7160   -1.2120    0.8690 ha        1 2TD      0.119000
     37 H13         8.7060   -0.7930   -0.5610 ha        1 2TD      0.110500
     38 H13A        7.8700    0.6640   -1.3370 ha        1 2TD      0.110500
@<TRIPOS>BOND
     1    1    2 2   
     2    2    3 1   
     3    2    4 1   
     4    3   15 1   
     5    3   16 1   
     6    3   17 1   
     7    4    5 1   
     8    4   18 1   
     9    4   19 1   
    10    5    6 1   
    11    5   20 1   
    12    5   21 1   
    13    6    7 1   
    14    6   22 1   
    15    6   23 1   
    16    7    8 1   
    17    7   24 1   
    18    7   25 1   
    19    8    9 1   
    20    8   26 1   
    21    8   27 1   
    22    9   10 1   
    23    9   28 1   
    24    9   29 1   
    25   10   11 1   
    26   10   30 1   
    27   10   31 1   
    28   11   12 1   
    29   11   32 1   
    30   11   33 1   
    31   12   13 1   
    32   12   34 1   
    33   12   35 1   
    34   13   14 2   
    35   13   36 1   
    36   14   37 1   
    37   14   38 1   
@<TRIPOS>SUBSTRUCTURE
     1 2TD         1 TEMP              0 ****  ****    0 ROOT
