@<TRIPOS>MOLECULE
2TE
   60    62     1     0     0
SMALL
bcc


@<TRIPOS>ATOM
      1 C23         0.1310    0.4080   -0.1420 c3        1 2TE     -0.020000
      2 C22         1.5060    0.0370   -0.2160 c1        1 2TE     -0.100100
      3 C21         2.6620   -0.2710   -0.2700 c1        1 2TE     -0.155100
      4 C20         4.0370   -0.6380   -0.3850 c3        1 2TE      0.024700
      5 C12         4.6550   -1.2650    0.8790 c3        1 2TE      0.202100
      6 C24         4.7140   -0.2120    2.0740 c3        1 2TE      0.588900
      7 F2          5.5220   -0.6120    3.1110 f         1 2TE     -0.235967
      8 F3          3.5030    0.0020    2.6770 f         1 2TE     -0.235967
      9 F1          5.1670    1.0350    1.7350 f         1 2TE     -0.235967
     10 O3          3.7990   -2.3070    1.3050 oh        1 2TE     -0.559800
     11 C9          6.0390   -1.7610    0.5520 ca        1 2TE     -0.169300
     12 C10         6.2910   -3.1310    0.4500 ca        1 2TE     -0.089000
     13 C11         7.5580   -3.6020    0.1210 ca        1 2TE     -0.157000
     14 C8          7.0800   -0.8630    0.2900 ca        1 2TE     -0.089000
     15 C7          8.3470   -1.3180   -0.0470 ca        1 2TE     -0.157000
     16 C6          8.6170   -2.7060   -0.1390 ca        1 2TE      0.147600
     17 N1          9.9160   -3.1230   -0.5360 nh        1 2TE     -0.629000
     18 C2         10.0550   -4.5080   -1.0070 c3        1 2TE      0.274600
     19 C3         11.5050   -4.7730   -1.5400 c3        1 2TE      0.232800
     20 C13         9.1410   -4.8460   -2.0780 c1        1 2TE     -0.163100
     21 C14         8.4090   -5.1510   -2.9740 c1        1 2TE     -0.094100
     22 C15         7.5340   -5.5220   -4.0370 c3        1 2TE     -0.024000
     23 C1         10.9650   -2.7330    0.3980 c3        1 2TE      0.171800
     24 C4         12.3830   -3.0350   -0.1320 c3        1 2TE      0.223800
     25 N2         12.5300   -4.3810   -0.6140 n3        1 2TE     -0.812500
     26 S1         13.7290   -5.3800   -0.1290 sy        1 2TE      1.529200
     27 O1         14.8220   -4.5990    0.3130 o         1 2TE     -0.654800
     28 O2         13.9780   -6.3280   -1.1460 o         1 2TE     -0.654800
     29 C5         13.0860   -6.1770    1.1850 ca        1 2TE     -0.593800
     30 C19        13.2550   -5.7020    2.4980 ca        1 2TE      0.064000
     31 C18        12.7410   -6.3990    3.5730 ca        1 2TE     -0.351300
     32 C17        12.0270   -7.6220    3.3270 ca        1 2TE      0.728200
     33 N4         11.4640   -8.3100    4.3730 nh        1 2TE     -0.958500
     34 N3         11.8710   -8.1130    2.0410 nb        1 2TE     -0.754000
     35 C16        12.3900   -7.4000    1.0450 ca        1 2TE      0.561200
     36 H23        -0.4910   -0.2560   -0.7970 hc        1 2TE      0.056700
     37 H23A       -0.2410    0.3150    0.9120 hc        1 2TE      0.056700
     38 H23B       -0.0090    1.4690   -0.4750 hc        1 2TE      0.056700
     39 H20         4.1490   -1.3900   -1.2170 hc        1 2TE      0.082200
     40 H20A        4.6550    0.2680   -0.6440 hc        1 2TE      0.082200
     41 HO3         4.1920   -2.6900    2.1030 ho        1 2TE      0.416000
     42 H10         5.4780   -3.8550    0.6250 ha        1 2TE      0.144500
     43 H11         7.7140   -4.6900    0.0490 ha        1 2TE      0.144000
     44 H8          6.8970    0.2220    0.3570 ha        1 2TE      0.144500
     45 H7          9.1400   -0.5840   -0.2590 ha        1 2TE      0.144000
     46 H2          9.8670   -5.2300   -0.1480 h1        1 2TE      0.044700
     47 H3         11.5940   -5.8750   -1.7580 h1        1 2TE      0.070200
     48 H3A        11.6360   -4.2070   -2.5070 h1        1 2TE      0.070200
     49 H15         8.1120   -5.6770   -4.9860 hc        1 2TE      0.059367
     50 H15A        6.9950   -6.4740   -3.7910 hc        1 2TE      0.059367
     51 H15B        6.7720   -4.7190   -4.2140 hc        1 2TE      0.059367
     52 H1         10.8310   -3.2450    1.3960 h1        1 2TE      0.046700
     53 H1A        10.8910   -1.6230    0.5650 h1        1 2TE      0.046700
     54 H4         12.6180   -2.3130   -0.9680 h1        1 2TE      0.064200
     55 H4A        13.1180   -2.8530    0.7050 h1        1 2TE      0.064200
     56 H19        13.8220   -4.7670    2.6630 ha        1 2TE      0.156000
     57 H18        12.8760   -6.0300    4.5980 ha        1 2TE      0.148000
     58 HN4        11.6840   -8.0300    5.2950 hn        1 2TE      0.442800
     59 HN4A       11.0400   -9.1930    4.2260 hn        1 2TE      0.442800
     60 H16        12.2610   -7.8440    0.0340 h4        1 2TE      0.042100
@<TRIPOS>BOND
     1    1    2 1   
     2    1   36 1   
     3    1   37 1   
     4    1   38 1   
     5    2    3 3   
     6    3    4 1   
     7    4    5 1   
     8    4   39 1   
     9    4   40 1   
    10    5    6 1   
    11    5   10 1   
    12    5   11 1   
    13    6    7 1   
    14    6    8 1   
    15    6    9 1   
    16   10   41 1   
    17   11   12 ar  
    18   11   14 ar  
    19   12   13 ar  
    20   12   42 1   
    21   13   16 ar  
    22   13   43 1   
    23   14   15 ar  
    24   14   44 1   
    25   15   16 ar  
    26   15   45 1   
    27   16   17 1   
    28   17   18 1   
    29   17   23 1   
    30   18   19 1   
    31   18   20 1   
    32   18   46 1   
    33   19   25 1   
    34   19   47 1   
    35   19   48 1   
    36   20   21 3   
    37   21   22 1   
    38   22   49 1   
    39   22   50 1   
    40   22   51 1   
    41   23   24 1   
    42   23   52 1   
    43   23   53 1   
    44   24   25 1   
    45   24   54 1   
    46   24   55 1   
    47   25   26 1   
    48   26   27 2   
    49   26   28 2   
    50   26   29 1   
    51   29   30 ar  
    52   29   35 ar  
    53   30   31 ar  
    54   30   56 1   
    55   31   32 ar  
    56   31   57 1   
    57   32   33 1   
    58   32   34 ar  
    59   33   58 1   
    60   33   59 1   
    61   34   35 ar  
    62   35   60 1   
@<TRIPOS>SUBSTRUCTURE
     1 2TE         1 TEMP              0 ****  ****    0 ROOT
