@<TRIPOS>MOLECULE
2TE
   60    62     1     0     0
SMALL
bcc


@<TRIPOS>ATOM
      1 C23         0.9720    1.7590   -1.4270 c3        1 2TE     -0.021000
      2 C22         2.0050    1.1080   -0.6910 c1        1 2TE     -0.098100
      3 C21         2.8720    0.5540   -0.0780 c1        1 2TE     -0.156100
      4 C20         3.9020   -0.0600    0.6950 c3        1 2TE     -0.017300
      5 C12         4.3130   -1.4740    0.2380 c3        1 2TE      0.202100
      6 C24         5.3350   -1.3660   -0.9780 c3        1 2TE      0.592900
      7 F2          5.6640   -2.5600   -1.5570 f         1 2TE     -0.235967
      8 F3          6.5400   -0.8430   -0.5670 f         1 2TE     -0.235967
      9 F1          4.9570   -0.5640   -2.0200 f         1 2TE     -0.235967
     10 O3          5.0410   -2.0990    1.2900 oh        1 2TE     -0.574800
     11 C9          3.1320   -2.3510   -0.0620 ca        1 2TE     -0.094300
     12 C10         2.5900   -2.4440   -1.3470 ca        1 2TE     -0.095000
     13 C11         1.4780   -3.2440   -1.5890 ca        1 2TE     -0.132000
     14 C8          2.5430   -3.0800    0.9780 ca        1 2TE     -0.095000
     15 C7          1.4310   -3.8820    0.7460 ca        1 2TE     -0.132000
     16 C6          0.8740   -3.9760   -0.5470 ca        1 2TE      0.109600
     17 N1         -0.2640   -4.8310   -0.7220 nh        1 2TE     -0.622000
     18 C2         -1.5160   -4.1710   -1.1140 c3        1 2TE      0.273600
     19 C3         -1.7090   -4.0010   -2.6570 c3        1 2TE      0.194800
     20 C13        -1.7330   -2.8830   -0.4950 c1        1 2TE     -0.150100
     21 C14        -1.9540   -1.8280    0.0240 c1        1 2TE     -0.105100
     22 C15        -2.2190   -0.5690    0.6380 c3        1 2TE     -0.020000
     23 C1         -0.0050   -6.0170   -1.5220 c3        1 2TE      0.166800
     24 C4         -0.2010   -5.8660   -3.0470 c3        1 2TE      0.186800
     25 N2         -1.4250   -5.1970   -3.4010 n3        1 2TE     -0.812500
     26 S1         -2.4130   -5.7510   -4.5790 sy        1 2TE      1.528200
     27 O1         -2.2250   -7.1460   -4.7240 o         1 2TE     -0.657300
     28 O2         -3.7320   -5.3060   -4.3280 o         1 2TE     -0.657300
     29 C5         -1.8560   -4.9960   -5.9560 ca        1 2TE     -0.588800
     30 C19        -0.8820   -5.5840   -6.7830 ca        1 2TE      0.066000
     31 C18        -0.4580   -4.9510   -7.9340 ca        1 2TE     -0.351300
     32 C17        -1.0300   -3.6760   -8.2730 ca        1 2TE      0.729200
     33 N4         -0.5930   -3.0040   -9.3870 nv        1 2TE     -0.960500
     34 N3         -2.0050   -3.0950   -7.4800 nb        1 2TE     -0.755000
     35 C16        -2.3760   -3.7530   -6.3840 ca        1 2TE      0.563200
     36 H23        -0.0330    1.3620   -1.1260 hc        1 2TE      0.057700
     37 H23A        1.1060    1.5870   -2.5270 hc        1 2TE      0.057700
     38 H23B        0.9900    2.8630   -1.2350 hc        1 2TE      0.057700
     39 H20         3.5550   -0.1510    1.7660 hc        1 2TE      0.078700
     40 H20A        4.8210    0.5940    0.6860 hc        1 2TE      0.078700
     41 HO3         5.7680   -1.5070    1.5320 ho        1 2TE      0.419000
     42 H10         3.0430   -1.8850   -2.1820 ha        1 2TE      0.146000
     43 H11         1.0730   -3.2970   -2.6120 ha        1 2TE      0.143500
     44 H8          2.9750   -3.0250    1.9910 ha        1 2TE      0.146000
     45 H7          0.9840   -4.4440    1.5810 ha        1 2TE      0.143500
     46 H2         -2.3290   -4.8770   -0.7440 h1        1 2TE      0.088700
     47 H3         -2.7820   -3.7020   -2.8310 h1        1 2TE      0.062200
     48 H3A        -1.0410   -3.1640   -3.0130 h1        1 2TE      0.062200
     49 H15        -3.2880   -0.2710    0.4780 hc        1 2TE      0.056367
     50 H15A       -2.0270   -0.6240    1.7410 hc        1 2TE      0.056367
     51 H15B       -1.5590    0.2270    0.2030 hc        1 2TE      0.056367
     52 H1         -0.7120   -6.8090   -1.1430 h1        1 2TE      0.067700
     53 H1A         1.0490   -6.3650   -1.3420 h1        1 2TE      0.067700
     54 H4         -0.2010   -6.9010   -3.4980 h1        1 2TE      0.056700
     55 H4A         0.6760   -5.2950   -3.4710 h1        1 2TE      0.056700
     56 H19        -0.4680   -6.5710   -6.5090 ha        1 2TE      0.156000
     57 H18         0.3000   -5.4100   -8.5820 ha        1 2TE      0.148000
     58 HN4        -1.0290   -2.1620   -9.6730 hn        1 2TE      0.442800
     59 HN4A        0.0130   -3.4690  -10.0150 hn        1 2TE      0.442800
     60 H16        -3.1760   -3.2590   -5.7900 h4        1 2TE      0.042100
@<TRIPOS>BOND
     1    1    2 1   
     2    1   36 1   
     3    1   37 1   
     4    1   38 1   
     5    2    3 3   
     6    3    4 1   
     7    4    5 1   
     8    4   39 1   
     9    4   40 1   
    10    5    6 1   
    11    5   10 1   
    12    5   11 1   
    13    6    7 1   
    14    6    8 1   
    15    6    9 1   
    16   10   41 1   
    17   11   12 ar  
    18   11   14 ar  
    19   12   13 ar  
    20   12   42 1   
    21   13   16 ar  
    22   13   43 1   
    23   14   15 ar  
    24   14   44 1   
    25   15   16 ar  
    26   15   45 1   
    27   16   17 1   
    28   17   18 1   
    29   17   23 1   
    30   18   19 1   
    31   18   20 1   
    32   18   46 1   
    33   19   25 1   
    34   19   47 1   
    35   19   48 1   
    36   20   21 3   
    37   21   22 1   
    38   22   49 1   
    39   22   50 1   
    40   22   51 1   
    41   23   24 1   
    42   23   52 1   
    43   23   53 1   
    44   24   25 1   
    45   24   54 1   
    46   24   55 1   
    47   25   26 1   
    48   26   27 2   
    49   26   28 2   
    50   26   29 1   
    51   29   30 ar  
    52   29   35 ar  
    53   30   31 ar  
    54   30   56 1   
    55   31   32 ar  
    56   31   57 1   
    57   32   33 1   
    58   32   34 ar  
    59   33   58 1   
    60   33   59 1   
    61   34   35 ar  
    62   35   60 1   
@<TRIPOS>SUBSTRUCTURE
     1 2TE         1 TEMP              0 ****  ****    0 ROOT
