@<TRIPOS>MOLECULE
2TF
   56    58     1     0     0
SMALL
bcc


@<TRIPOS>ATOM
      1 C19         0.0340    0.2210   -0.0620 ca        1 2TF      0.065000
      2 C18         1.4000    0.4180   -0.0280 ca        1 2TF     -0.352300
      3 C17         2.0660    0.4280    1.2460 ca        1 2TF      0.729200
      4 N4          3.4160    0.6670    1.3130 nv        1 2TF     -0.960500
      5 N3          1.3640    0.2220    2.4220 nb        1 2TF     -0.754000
      6 C16         0.0500    0.0350    2.3270 ca        1 2TF      0.564200
      7 C5         -0.6950    0.0310    1.1250 ca        1 2TF     -0.586800
      8 S1         -2.3390   -0.2450    1.1150 sy        1 2TF      1.531200
      9 O1         -2.6900   -0.7850   -0.1450 o         1 2TF     -0.657300
     10 O2         -2.6680   -1.0110    2.2560 o         1 2TF     -0.657300
     11 N2         -2.9830    1.2510    1.2560 n3        1 2TF     -0.810500
     12 C3         -3.3960    1.8130    2.5120 c3        1 2TF      0.231800
     13 C2         -4.8430    2.4120    2.4890 c3        1 2TF      0.280600
     14 C13        -5.8030    1.3280    2.5560 c1        1 2TF     -0.202100
     15 C14        -6.5800    0.4200    2.6350 c1        1 2TF     -0.087100
     16 C15        -7.4950   -0.6690    2.7340 c3        1 2TF     -0.027000
     17 C4         -3.2130    2.1020    0.1200 c3        1 2TF      0.221800
     18 C1         -4.6310    2.7220    0.0860 c3        1 2TF      0.179800
     19 N1         -4.9880    3.3280    1.3580 nh        1 2TF     -0.636000
     20 C6         -6.0890    4.2140    1.3570 ca        1 2TF      0.167600
     21 C11        -7.1120    4.1610    2.3300 ca        1 2TF     -0.178000
     22 C10        -8.1230    5.1150    2.3580 ca        1 2TF     -0.070500
     23 C7         -6.1360    5.2680    0.4090 ca        1 2TF     -0.178000
     24 C8         -7.1550    6.2090    0.4440 ca        1 2TF     -0.070500
     25 C9         -8.1620    6.1450    1.4150 ca        1 2TF     -0.145300
     26 C12        -9.2700    7.1520    1.4180 c3        1 2TF      0.169100
     27 C21        -8.7100    8.6180    1.7010 c3        1 2TF      0.584900
     28 F2         -9.7280    9.5220    1.9000 f         1 2TF     -0.238967
     29 F3         -7.9190    8.7390    2.8070 f         1 2TF     -0.238967
     30 F1         -7.9790    9.1600    0.6740 f         1 2TF     -0.238967
     31 O3        -10.1630    6.8660    2.4750 oh        1 2TF     -0.570800
     32 C20       -10.0090    7.1610    0.0620 c3        1 2TF      0.095400
     33 O4        -11.2260    7.8650    0.1660 oh        1 2TF     -0.595800
     34 H1         -0.4980    0.1950   -1.0310 ha        1 2TF      0.155000
     35 H2          1.9710    0.5630   -0.9540 ha        1 2TF      0.147000
     36 H3          3.9350    0.6960    0.4720 hn        1 2TF      0.443300
     37 H4          3.8980    0.6060    2.1750 hn        1 2TF      0.443300
     38 H5         -0.4680   -0.1480    3.2930 h4        1 2TF      0.042100
     39 H6         -3.3710    1.0150    3.3090 h1        1 2TF      0.066200
     40 H7         -2.6920    2.6460    2.8020 h1        1 2TF      0.066200
     41 H8         -4.9440    3.0340    3.4340 h1        1 2TF      0.085700
     42 H9         -8.1520   -0.5520    3.6350 hc        1 2TF      0.061033
     43 H10        -8.1480   -0.7170    1.8230 hc        1 2TF      0.061033
     44 H11        -6.9380   -1.6390    2.8220 hc        1 2TF      0.061033
     45 H12        -2.4570    2.9400    0.1210 h1        1 2TF      0.057200
     46 H13        -3.0850    1.5010   -0.8270 h1        1 2TF      0.057200
     47 H14        -4.6350    3.5060   -0.7190 h1        1 2TF      0.052700
     48 H15        -5.3720    1.9210   -0.2000 h1        1 2TF      0.052700
     49 H16        -7.1320    3.3560    3.0810 ha        1 2TF      0.143500
     50 H17        -8.9080    5.0540    3.1310 ha        1 2TF      0.147500
     51 H18        -5.3520    5.3700   -0.3560 ha        1 2TF      0.143500
     52 H19        -7.1570    7.0280   -0.2940 ha        1 2TF      0.147500
     53 H20       -11.0000    7.3170    2.2760 ho        1 2TF      0.435000
     54 H21        -9.3470    7.5910   -0.7340 h1        1 2TF      0.078700
     55 H22       -10.3040    6.1090   -0.2000 h1        1 2TF      0.078700
     56 H23       -11.0220    8.8090    0.1990 ho        1 2TF      0.415000
@<TRIPOS>BOND
     1    1    2 ar  
     2    1    7 ar  
     3    1   34 1   
     4    2    3 ar  
     5    2   35 1   
     6    3    4 1   
     7    3    5 ar  
     8    4   36 1   
     9    4   37 1   
    10    5    6 ar  
    11    6    7 ar  
    12    6   38 1   
    13    7    8 1   
    14    8    9 2   
    15    8   10 2   
    16    8   11 1   
    17   11   12 1   
    18   11   17 1   
    19   12   13 1   
    20   12   39 1   
    21   12   40 1   
    22   13   14 1   
    23   13   19 1   
    24   13   41 1   
    25   14   15 3   
    26   15   16 1   
    27   16   42 1   
    28   16   43 1   
    29   16   44 1   
    30   17   18 1   
    31   17   45 1   
    32   17   46 1   
    33   18   19 1   
    34   18   47 1   
    35   18   48 1   
    36   19   20 1   
    37   20   21 ar  
    38   20   23 ar  
    39   21   22 ar  
    40   21   49 1   
    41   22   25 ar  
    42   22   50 1   
    43   23   24 ar  
    44   23   51 1   
    45   24   25 ar  
    46   24   52 1   
    47   25   26 1   
    48   26   27 1   
    49   26   31 1   
    50   26   32 1   
    51   27   28 1   
    52   27   29 1   
    53   27   30 1   
    54   31   53 1   
    55   32   33 1   
    56   32   54 1   
    57   32   55 1   
    58   33   56 1   
@<TRIPOS>SUBSTRUCTURE
     1 2TF         1 TEMP              0 ****  ****    0 ROOT
