@<TRIPOS>MOLECULE
2TF
   56    58     1     0     0
SMALL
bcc


@<TRIPOS>ATOM
      1 C19        -0.0260    0.1720   -0.0460 ca        1 2TF      0.065000
      2 C18         1.3380    0.3800   -0.0940 ca        1 2TF     -0.352300
      3 C17         2.0670    0.4720    1.1410 ca        1 2TF      0.729200
      4 N4          3.4160    0.7250    1.1240 nh        1 2TF     -0.960500
      5 N3          1.4280    0.3320    2.3620 nb        1 2TF     -0.754000
      6 C16         0.1130    0.1300    2.3460 ca        1 2TF      0.564200
      7 C5         -0.6920    0.0480    1.1860 ca        1 2TF     -0.586800
      8 S1         -2.3320   -0.2400    1.2770 sy        1 2TF      1.531200
      9 O1         -2.7410   -0.8580    0.0720 o         1 2TF     -0.657300
     10 O2         -2.5940   -0.9380    2.4780 o         1 2TF     -0.657300
     11 N2         -2.9830    1.2570    1.3620 n3        1 2TF     -0.810500
     12 C3         -3.3360    1.8910    2.6010 c3        1 2TF      0.231800
     13 C2         -4.7880    2.4780    2.6180 c3        1 2TF      0.280600
     14 C13        -5.7330    1.3930    2.8000 c1        1 2TF     -0.202100
     15 C14        -6.4960    0.4860    2.9750 c1        1 2TF     -0.087100
     16 C15        -7.3930   -0.6010    3.1880 c3        1 2TF     -0.027000
     17 C4         -3.2810    2.0350    0.1890 c3        1 2TF      0.221800
     18 C1         -4.7040    2.6420    0.1920 c3        1 2TF      0.179800
     19 N1         -5.0020    3.3220    1.4430 nh        1 2TF     -0.636000
     20 C6         -6.1100    4.1990    1.4450 ca        1 2TF      0.167600
     21 C11        -7.0800    4.1980    2.4730 ca        1 2TF     -0.178000
     22 C10        -8.0980    5.1450    2.4960 ca        1 2TF     -0.070500
     23 C7         -6.2180    5.1920    0.4390 ca        1 2TF     -0.178000
     24 C8         -7.2430    6.1260    0.4700 ca        1 2TF     -0.070500
     25 C9         -8.1970    6.1140    1.4950 ca        1 2TF     -0.145300
     26 C12        -9.3130    7.1120    1.4960 c3        1 2TF      0.169100
     27 C21        -8.7540    8.5960    1.6580 c3        1 2TF      0.584900
     28 F2         -9.7700    9.5040    1.8560 f         1 2TF     -0.238967
     29 F3         -7.9070    8.7910    2.7110 f         1 2TF     -0.238967
     30 F1         -8.0850    9.0800    0.5630 f         1 2TF     -0.238967
     31 O3        -10.1470    6.8860    2.6140 oh        1 2TF     -0.570800
     32 C20       -10.1220    7.0320    0.1820 c3        1 2TF      0.095400
     33 O4        -11.3400    7.7330    0.3080 oh        1 2TF     -0.595800
     34 H1         -0.6070    0.0830   -0.9830 ha        1 2TF      0.155000
     35 H2          1.8590    0.4730   -1.0560 ha        1 2TF      0.147000
     36 H3          3.8910    0.7070    0.2570 hn        1 2TF      0.443300
     37 H4          3.9420    0.7200    1.9630 hn        1 2TF      0.443300
     38 H5         -0.3530    0.0020    3.3470 h4        1 2TF      0.042100
     39 H6         -2.6270    2.7450    2.8030 h1        1 2TF      0.066200
     40 H7         -3.2610    1.1440    3.4420 h1        1 2TF      0.066200
     41 H8         -4.8460    3.1550    3.5270 h1        1 2TF      0.085700
     42 H9         -6.8230   -1.5620    3.2880 hc        1 2TF      0.061033
     43 H10        -7.9890   -0.4430    4.1240 hc        1 2TF      0.061033
     44 H11        -8.1030   -0.6970    2.3260 hc        1 2TF      0.061033
     45 H12        -3.1960    1.3790   -0.7250 h1        1 2TF      0.057200
     46 H13        -2.5340    2.8770    0.1010 h1        1 2TF      0.057200
     47 H14        -4.7580    3.3760   -0.6570 h1        1 2TF      0.052700
     48 H15        -5.4520    1.8190   -0.0050 h1        1 2TF      0.052700
     49 H16        -7.0530    3.4400    3.2710 ha        1 2TF      0.143500
     50 H17        -8.8410    5.1250    3.3120 ha        1 2TF      0.147500
     51 H18        -5.4760    5.2530   -0.3710 ha        1 2TF      0.143500
     52 H19        -7.2920    6.8980   -0.3150 ha        1 2TF      0.147500
     53 H20       -10.9980    7.3180    2.4320 ho        1 2TF      0.435000
     54 H21        -9.5080    7.4170   -0.6720 h1        1 2TF      0.078700
     55 H22       -10.4210    5.9640    0.0010 h1        1 2TF      0.078700
     56 H23       -11.1430    8.6790    0.2720 ho        1 2TF      0.415000
@<TRIPOS>BOND
     1    1    2 ar  
     2    1    7 ar  
     3    1   34 1   
     4    2    3 ar  
     5    2   35 1   
     6    3    4 1   
     7    3    5 ar  
     8    4   36 1   
     9    4   37 1   
    10    5    6 ar  
    11    6    7 ar  
    12    6   38 1   
    13    7    8 1   
    14    8    9 2   
    15    8   10 2   
    16    8   11 1   
    17   11   12 1   
    18   11   17 1   
    19   12   13 1   
    20   12   39 1   
    21   12   40 1   
    22   13   14 1   
    23   13   19 1   
    24   13   41 1   
    25   14   15 3   
    26   15   16 1   
    27   16   42 1   
    28   16   43 1   
    29   16   44 1   
    30   17   18 1   
    31   17   45 1   
    32   17   46 1   
    33   18   19 1   
    34   18   47 1   
    35   18   48 1   
    36   19   20 1   
    37   20   21 ar  
    38   20   23 ar  
    39   21   22 ar  
    40   21   49 1   
    41   22   25 ar  
    42   22   50 1   
    43   23   24 ar  
    44   23   51 1   
    45   24   25 ar  
    46   24   52 1   
    47   25   26 1   
    48   26   27 1   
    49   26   31 1   
    50   26   32 1   
    51   27   28 1   
    52   27   29 1   
    53   27   30 1   
    54   31   53 1   
    55   32   33 1   
    56   32   54 1   
    57   32   55 1   
    58   33   56 1   
@<TRIPOS>SUBSTRUCTURE
     1 2TF         1 TEMP              0 ****  ****    0 ROOT
