@<TRIPOS>MOLECULE
2TG
   53    54     1     0     0
SMALL
bcc


@<TRIPOS>ATOM
      1 C19        -0.3370   -1.3210   -0.3050 c2        1 2TG      0.028000
      2 C18         0.7750   -2.1160   -0.6210 c2        1 2TG     -0.162000
      3 C17         1.6960   -2.3730    0.4130 c2        1 2TG     -0.012000
      4 N4          2.8280   -3.2860    0.1600 n4        1 2TG     -0.036000
      5 N3          1.6040   -1.8370    1.6650 n2        1 2TG     -0.138000
      6 C16         0.5280   -1.0830    1.9230 c2        1 2TG      0.066000
      7 C15        -0.5030   -0.8290    0.9880 c2        1 2TG     -0.792000
      8 S2         -1.9200    0.0630    1.4560 s6        1 2TG      2.841000
      9 O2         -1.6080    0.6720    2.6780 o         1 2TG     -0.894500
     10 O3         -2.2610    0.8430    0.3440 o         1 2TG     -0.894500
     11 N2         -3.0160   -1.1170    1.6620 n3        1 2TG     -0.821000
     12 C3         -3.2310   -1.8460    2.8820 c3        1 2TG     -0.021000
     13 C2         -2.7610   -3.3420    2.8100 c3        1 2TG      0.129000
     14 C5         -1.4680   -3.4100    3.4660 c1        1 2TG     -0.258000
     15 C6         -0.4580   -3.4400    4.1110 c1        1 2TG     -0.089000
     16 C7          0.7340   -3.4830    4.8930 c3        1 2TG     -0.133000
     17 C4         -3.7160   -1.7400    0.5680 c3        1 2TG     -0.037000
     18 C1         -3.2340   -3.1830    0.3170 c3        1 2TG     -0.051000
     19 N1         -2.8180   -3.9460    1.4780 nh        1 2TG     -0.258000
     20 C8         -2.1400   -5.1300    1.2360 ca        1 2TG      0.195000
     21 C13        -1.9210   -5.6000   -0.0950 ca        1 2TG     -0.235500
     22 C12        -1.0450   -6.6370   -0.3370 ca        1 2TG      0.046500
     23 C9         -1.6200   -5.9370    2.2910 ca        1 2TG     -0.235500
     24 C10        -0.7390   -6.9620    2.0190 ca        1 2TG      0.046500
     25 C11        -0.3510   -7.2860    0.7010 ca        1 2TG     -0.984000
     26 S1          0.8700   -8.3280    0.4470 s4        1 2TG      3.022000
     27 C14         2.3360   -6.7590    0.0470 c2        1 2TG     -0.106000
     28 F2          2.6540   -5.9430    1.1070 f         1 2TG     -0.217000
     29 F3          3.5410   -7.2290   -0.3860 f         1 2TG     -0.217000
     30 F1          1.9910   -5.8290   -0.9160 f         1 2TG     -0.217000
     31 O1          1.3850   -8.7930    1.6520 o         1 2TG     -0.858000
     32 N5          0.8760   -8.9770   -0.6990 n2        1 2TG     -1.272000
     33 H1         -1.0780   -1.0850   -1.0920 ha        1 2TG      0.182000
     34 H2          0.8990   -2.5210   -1.6370 ha        1 2TG      0.176000
     35 H3          2.5260   -4.0340   -0.5000 hn        1 2TG      0.278333
     36 H4          3.6140   -2.7600   -0.2330 hn        1 2TG      0.278333
     37 H5          0.4830   -0.6500    2.9500 h4        1 2TG      0.222000
     38 H6         -4.3350   -1.8470    3.1180 h1        1 2TG      0.130500
     39 H7         -2.6950   -1.3340    3.7320 h1        1 2TG      0.130500
     40 H8         -3.4920   -3.9360    3.4520 h1        1 2TG      0.135000
     41 H9          1.2100   -4.4970    4.8310 hc        1 2TG      0.112333
     42 H10         0.5000   -3.2690    5.9690 hc        1 2TG      0.112333
     43 H11         1.4720   -2.7190    4.5330 hc        1 2TG      0.112333
     44 H12        -4.8220   -1.7500    0.7950 h1        1 2TG      0.126000
     45 H13        -3.5670   -1.1420   -0.3770 h1        1 2TG      0.126000
     46 H14        -2.3690   -3.1220   -0.4120 h1        1 2TG      0.093500
     47 H15        -4.0760   -3.7440   -0.1840 h1        1 2TG      0.093500
     48 H16        -2.4520   -5.1560   -0.9510 ha        1 2TG      0.158000
     49 H17        -0.8680   -6.9440   -1.3840 ha        1 2TG      0.158500
     50 H18        -1.9090   -5.7460    3.3370 ha        1 2TG      0.158000
     51 H19        -0.3050   -7.5360    2.8610 ha        1 2TG      0.158500
     52 H21         0.8960   -9.3480   -1.5910 hn        1 2TG      0.342000
     53 H43         3.1290   -3.7520    1.0330 hn        1 2TG      0.278333
@<TRIPOS>BOND
     1    1    2 1   
     2    1    7 1   
     3    1   33 1   
     4    2    3 1   
     5    2   34 1   
     6    3    4 1   
     7    3    5 1   
     8    4   35 1   
     9    4   36 1   
    10    4   53 1   
    11    5    6 1   
    12    6    7 1   
    13    6   37 1   
    14    7    8 1   
    15    8    9 1   
    16    8   10 1   
    17    8   11 1   
    18   11   12 1   
    19   11   17 1   
    20   12   13 1   
    21   12   38 1   
    22   12   39 1   
    23   13   14 1   
    24   13   19 1   
    25   13   40 1   
    26   14   15 1   
    27   15   16 1   
    28   16   41 1   
    29   16   42 1   
    30   16   43 1   
    31   17   18 1   
    32   17   44 1   
    33   17   45 1   
    34   18   19 1   
    35   18   46 1   
    36   18   47 1   
    37   19   20 1   
    38   20   21 1   
    39   20   23 1   
    40   21   22 1   
    41   21   48 1   
    42   22   25 1   
    43   22   49 1   
    44   23   24 1   
    45   23   50 1   
    46   24   25 1   
    47   24   51 1   
    48   25   26 1   
    49   26   31 1   
    50   26   32 1   
    51   27   28 1   
    52   27   29 1   
    53   27   30 1   
    54   32   52 1   
@<TRIPOS>SUBSTRUCTURE
     1 2TG         1 TEMP              0 ****  ****    0 ROOT
