@<TRIPOS>MOLECULE
2TG
   52    53     1     0     0
SMALL
bcc


@<TRIPOS>ATOM
      1 C19        -0.2830    0.7360   -0.2540 ca        1 2TG      0.065000
      2 C18         0.9900    0.8210   -0.7760 ca        1 2TG     -0.355300
      3 C17         2.0730    0.1890   -0.0700 ca        1 2TG      0.738200
      4 N4          3.3440    0.2390   -0.5770 nv        1 2TG     -0.958500
      5 N3          1.8520   -0.4850    1.1210 nb        1 2TG     -0.760000
      6 C16         0.6030   -0.5320    1.5760 ca        1 2TG      0.571200
      7 C15        -0.5270    0.0430    0.9490 ca        1 2TG     -0.599800
      8 S2         -2.0330    0.0070    1.6370 sy        1 2TG      1.523200
      9 O2         -1.9160    0.1760    3.0340 o         1 2TG     -0.650300
     10 O3         -2.8560    0.9380    0.9700 o         1 2TG     -0.650300
     11 N2         -2.6050   -1.5300    1.3570 nh        1 2TG     -0.676300
     12 C3         -2.9730   -2.3930    2.4490 c3        1 2TG      0.215800
     13 C2         -2.1680   -3.7230    2.6130 c3        1 2TG      0.287600
     14 C5         -0.8520   -3.4560    3.1550 c1        1 2TG     -0.215100
     15 C6          0.2260   -3.2650    3.6420 c1        1 2TG     -0.075100
     16 C7          1.5080   -3.0290    4.2220 c3        1 2TG     -0.039000
     17 C4         -3.0250   -1.9610    0.0860 c2        1 2TG      0.059000
     18 C1         -2.3610   -1.8140   -1.0690 c2        1 2TG     -0.279000
     19 N1         -2.1720   -4.5220    1.4020 nu        1 2TG     -0.731600
     20 C8         -1.8010   -5.8560    1.4090 ca        1 2TG      0.253600
     21 C13        -1.5630   -6.5170    0.1680 ca        1 2TG     -0.228000
     22 C12        -1.2890   -7.8680    0.1350 ca        1 2TG      0.043000
     23 C9         -1.7170   -6.6340    2.5940 ca        1 2TG     -0.228000
     24 C10        -1.4400   -7.9860    2.5290 ca        1 2TG      0.043000
     25 C11        -1.2300   -8.6470    1.3040 ca        1 2TG     -0.498500
     26 S1         -0.9220  -10.2610    1.2830 sy        1 2TG      1.369000
     27 C14         1.0830  -10.1450    0.7690 c3        1 2TG      0.561700
     28 F2          1.8700   -9.4080    1.6100 f         1 2TG     -0.258300
     29 F3          1.6810  -11.3760    0.7140 f         1 2TG     -0.258300
     30 F1          1.2970   -9.6060   -0.4750 f         1 2TG     -0.258300
     31 O1         -0.8600  -10.7510    2.5960 o         1 2TG     -0.600800
     32 N5         -1.4560  -10.9310    0.2690 n2        1 2TG     -1.108900
     33 H1         -1.1300    1.2260   -0.7720 ha        1 2TG      0.166000
     34 H2          1.1800    1.3650   -1.7110 ha        1 2TG      0.150000
     35 H3          4.1060   -0.1660   -0.0900 hn        1 2TG      0.447800
     36 H4          3.5140    0.7600   -1.3990 hn        1 2TG      0.447800
     37 H5          0.4810   -1.0730    2.5410 h4        1 2TG      0.043100
     38 H6         -2.8440   -1.8300    3.4210 h1        1 2TG      0.080200
     39 H7         -4.0600   -2.6810    2.3480 h1        1 2TG      0.080200
     40 H8         -2.7460   -4.3080    3.4020 h1        1 2TG      0.083700
     41 H9          2.1850   -2.5210    3.4850 hc        1 2TG      0.068033
     42 H10         1.4120   -2.3730    5.1270 hc        1 2TG      0.068033
     43 H11         1.9810   -3.9970    4.5320 hc        1 2TG      0.068033
     44 H12        -4.0060   -2.4840    0.0950 h4        1 2TG      0.138000
     45 H13        -1.3830   -1.3250   -1.1670 ha        1 2TG      0.129000
     46 H14        -1.9350   -4.0240    0.5670 hn        1 2TG      0.431800
     47 H15        -2.8060   -2.1660   -2.0080 ha        1 2TG      0.129000
     48 H16        -1.5930   -5.9470   -0.7740 ha        1 2TG      0.146500
     49 H17        -1.0870   -8.3470   -0.8410 ha        1 2TG      0.153500
     50 H18        -1.8540   -6.1650    3.5810 ha        1 2TG      0.146500
     51 H19        -1.3730   -8.5680    3.4680 ha        1 2TG      0.153500
     52 H21        -1.7370  -11.3190   -0.5660 hn        1 2TG      0.571400
@<TRIPOS>BOND
     1    1    2 ar  
     2    1    7 ar  
     3    1   33 1   
     4    2    3 ar  
     5    2   34 1   
     6    3    4 1   
     7    3    5 ar  
     8    4   35 1   
     9    4   36 1   
    10    5    6 ar  
    11    6    7 ar  
    12    6   37 1   
    13    7    8 1   
    14    8    9 2   
    15    8   10 2   
    16    8   11 1   
    17   11   12 1   
    18   11   17 1   
    19   12   13 1   
    20   12   38 1   
    21   12   39 1   
    22   13   14 1   
    23   13   19 1   
    24   13   40 1   
    25   14   15 3   
    26   15   16 1   
    27   16   41 1   
    28   16   42 1   
    29   16   43 1   
    30   17   18 2   
    31   17   44 1   
    32   18   45 1   
    33   18   47 1   
    34   19   20 1   
    35   19   46 1   
    36   20   21 ar  
    37   20   23 ar  
    38   21   22 ar  
    39   21   48 1   
    40   22   25 ar  
    41   22   49 1   
    42   23   24 ar  
    43   23   50 1   
    44   24   25 ar  
    45   24   51 1   
    46   25   26 1   
    47   26   27 1   
    48   26   31 2   
    49   26   32 2   
    50   27   28 1   
    51   27   29 1   
    52   27   30 1   
    53   32   52 1   
@<TRIPOS>SUBSTRUCTURE
     1 2TG         1 TEMP              0 ****  ****    0 ROOT
