@<TRIPOS>MOLECULE
2TG
   52    54     1     0     0
SMALL
bcc


@<TRIPOS>ATOM
      1 C19        -0.4260    0.3340   -0.3570 ca        1 2TG      0.063000
      2 C18         0.8870    0.3610   -0.7780 ca        1 2TG     -0.353300
      3 C17         1.9310    0.1810    0.1950 ca        1 2TG      0.735200
      4 N4          3.2430    0.1750   -0.2010 nh        1 2TG     -0.959500
      5 N3          1.6340   -0.0010    1.5360 nb        1 2TG     -0.761000
      6 C16         0.3490   -0.0170    1.8840 ca        1 2TG      0.572200
      7 C15        -0.7440    0.1330    1.0000 ca        1 2TG     -0.598800
      8 S2         -2.3150    0.1450    1.5410 sy        1 2TG      1.534200
      9 O2         -2.3430    0.6000    2.8780 o         1 2TG     -0.654800
     10 O3         -3.0970    0.8540    0.6020 o         1 2TG     -0.654800
     11 N2         -2.7690   -1.4310    1.5160 n3        1 2TG     -0.806500
     12 C3         -2.9550   -2.2260    2.6930 c3        1 2TG      0.230800
     13 C2         -2.2220   -3.6050    2.6620 c3        1 2TG      0.288600
     14 C5         -0.8430   -3.4340    3.0710 c1        1 2TG     -0.215100
     15 C6          0.2900   -3.3020    3.4350 c1        1 2TG     -0.073100
     16 C7          1.6380   -3.1400    3.8720 c3        1 2TG     -0.036000
     17 C4         -3.0540   -2.1390    0.3020 c3        1 2TG      0.229800
     18 C1         -2.3320   -3.4990    0.1860 c3        1 2TG      0.176800
     19 N1         -2.3960   -4.3100    1.3900 nh        1 2TG     -0.632000
     20 C8         -1.9380   -5.6270    1.3020 ca        1 2TG      0.254600
     21 C13        -1.6350   -6.2300    0.0490 ca        1 2TG     -0.220500
     22 C12        -1.2920   -7.5670   -0.0320 ca        1 2TG      0.038000
     23 C9         -1.8310   -6.4550    2.4560 ca        1 2TG     -0.220500
     24 C10        -1.4860   -7.7870    2.3460 ca        1 2TG      0.038000
     25 C11        -1.2200   -8.3900    1.1030 ca        1 2TG     -0.491500
     26 S1         -0.8310   -9.9860    1.0260 sy        1 2TG      1.368000
     27 C14         1.1690   -9.7480    0.5390 c3        1 2TG      0.561700
     28 F2          1.9110   -9.0050    1.4160 f         1 2TG     -0.258300
     29 F3          1.8310  -10.9450    0.4440 f         1 2TG     -0.258300
     30 F1          1.3670   -9.1520   -0.6820 f         1 2TG     -0.258300
     31 O1         -0.7570  -10.5210    2.3210 o         1 2TG     -0.599800
     32 N5         -1.3210  -10.6430   -0.0190 n2        1 2TG     -1.107900
     33 H1         -1.2450    0.4890   -1.0830 ha        1 2TG      0.157000
     34 H2          1.1350    0.5230   -1.8350 ha        1 2TG      0.149000
     35 H3          3.4600    0.3770   -1.1430 hn        1 2TG      0.446300
     36 H4          3.9750    0.0980    0.4610 hn        1 2TG      0.446300
     37 H5          0.1630   -0.1500    2.9720 h4        1 2TG      0.042100
     38 H6         -2.5910   -1.6600    3.5990 h1        1 2TG      0.073200
     39 H7         -4.0570   -2.4390    2.8250 h1        1 2TG      0.073200
     40 H8         -2.7460   -4.2290    3.4560 h1        1 2TG      0.083700
     41 H9          2.0410   -2.1470    3.5390 hc        1 2TG      0.067033
     42 H10         2.2870   -3.9490    3.4430 hc        1 2TG      0.067033
     43 H11         1.6980   -3.1930    4.9900 hc        1 2TG      0.067033
     44 H12        -2.7410   -1.5080   -0.5790 h1        1 2TG      0.058700
     45 H13        -4.1670   -2.3170    0.2270 h1        1 2TG      0.058700
     46 H14        -2.8520   -4.0590   -0.6430 h1        1 2TG      0.054200
     47 H15        -1.2600   -3.3250   -0.1160 h1        1 2TG      0.054200
     48 H16        -1.6460   -5.6440   -0.8820 ha        1 2TG      0.146000
     49 H17        -1.0420   -7.9900   -1.0220 ha        1 2TG      0.154000
     50 H18        -2.0070   -6.0470    3.4620 ha        1 2TG      0.146000
     51 H19        -1.4090   -8.4010    3.2640 ha        1 2TG      0.154000
     52 H21        -1.5750  -11.0120   -0.8710 hn        1 2TG      0.571400
@<TRIPOS>BOND
     1    1    2 ar  
     2    1    7 ar  
     3    1   33 1   
     4    2    3 ar  
     5    2   34 1   
     6    3    4 1   
     7    3    5 ar  
     8    4   35 1   
     9    4   36 1   
    10    5    6 ar  
    11    6    7 ar  
    12    6   37 1   
    13    7    8 1   
    14    8    9 2   
    15    8   10 2   
    16    8   11 1   
    17   11   12 1   
    18   11   17 1   
    19   12   13 1   
    20   12   38 1   
    21   12   39 1   
    22   13   14 1   
    23   13   19 1   
    24   13   40 1   
    25   14   15 3   
    26   15   16 1   
    27   16   41 1   
    28   16   42 1   
    29   16   43 1   
    30   17   18 1   
    31   17   44 1   
    32   17   45 1   
    33   18   19 1   
    34   18   46 1   
    35   18   47 1   
    36   19   20 1   
    37   20   21 ar  
    38   20   23 ar  
    39   21   22 ar  
    40   21   48 1   
    41   22   25 ar  
    42   22   49 1   
    43   23   24 ar  
    44   23   50 1   
    45   24   25 ar  
    46   24   51 1   
    47   25   26 1   
    48   26   27 1   
    49   26   31 2   
    50   26   32 2   
    51   27   28 1   
    52   27   29 1   
    53   27   30 1   
    54   32   52 1   
@<TRIPOS>SUBSTRUCTURE
     1 2TG         1 TEMP              0 ****  ****    0 ROOT
