@<TRIPOS>MOLECULE
2TH
   36    39     1     0     0
SMALL
bcc


@<TRIPOS>ATOM
      1 O1          1.3720   -0.9210   -0.6030 oh        1 2TH     -0.586800
      2 C1          2.3370   -0.4430    0.2960 c3        1 2TH      0.193400
      3 C2          1.8840   -0.1410    1.6900 ca        1 2TH     -0.165300
      4 C3          2.3660    1.1160    2.1200 ca        1 2TH     -0.092300
      5 C4          2.0870    1.5780    3.3950 ca        1 2TH     -0.099000
      6 C5          1.3170    0.7700    4.2460 ca        1 2TH     -0.097000
      7 C6          0.8410   -0.4670    3.8200 ca        1 2TH     -0.114000
      8 C7          1.1230   -0.9380    2.5290 ca        1 2TH     -0.082000
      9 C8          3.1480    1.8000    1.0490 c3        1 2TH     -0.037100
     10 C9          2.8710    0.9510   -0.2140 c3        1 2TH      0.070500
     11 N1          4.0380    0.7860   -1.1290 n4        1 2TH     -0.661800
     12 C10         4.3530    2.0200   -1.9630 c         1 2TH      0.591700
     13 O2          3.7050    3.0310   -1.7170 o         1 2TH     -0.442100
     14 C11         5.3570    1.8430   -2.9750 cc        1 2TH     -0.305900
     15 C12         5.4990    2.7010   -4.0910 cd        1 2TH      0.074000
     16 C13         6.5130    2.1420   -4.9100 cd        1 2TH     -0.160000
     17 C14         6.9770    0.9320   -4.2510 cc        1 2TH     -0.069400
     18 S1          8.1510    0.1760   -5.1200 ss        1 2TH      0.166200
     19 C15         8.1100    1.3520   -6.3640 cc        1 2TH     -0.026700
     20 C16         7.1920    2.3570   -6.1400 cd        1 2TH     -0.060000
     21 CL1         9.1140    1.2290   -7.6850 cl        1 2TH      0.025600
     22 N2          6.2190    0.6990   -3.1000 na        1 2TH     -0.132100
     23 HO1         0.4990   -0.6210   -0.3120 ho        1 2TH      0.437000
     24 H1          3.1470   -1.2280    0.3030 h1        1 2TH      0.084700
     25 H4          2.4530    2.5560    3.7390 ha        1 2TH      0.153000
     26 H5          1.0870    1.1250    5.2640 ha        1 2TH      0.156000
     27 H6          0.2360   -1.0870    4.5000 ha        1 2TH      0.157000
     28 H7          0.7470   -1.9160    2.1950 ha        1 2TH      0.154000
     29 H81         4.2360    1.8270    1.3180 hc        1 2TH      0.082700
     30 H82         2.8090    2.8550    0.8840 hc        1 2TH      0.082700
     31 H9          2.0520    1.4450   -0.8190 hx        1 2TH      0.129700
     32 HN1         4.8640    0.5380   -0.5780 hn        1 2TH      0.457300
     33 H12         4.9130    3.6040   -4.2800 ha        1 2TH      0.194000
     34 H16         7.0000    3.2040   -6.8070 ha        1 2TH      0.192000
     35 HN2         6.7020    0.3830   -2.2870 hn        1 2TH      0.273700
     36 H121        3.8270    0.0110   -1.7720 hn        1 2TH      0.457300
@<TRIPOS>BOND
     1    1    2 1   
     2    1   23 1   
     3    2    3 1   
     4    2   10 1   
     5    2   24 1   
     6    3    4 ar  
     7    3    8 ar  
     8    4    5 ar  
     9    4    9 1   
    10    5    6 ar  
    11    5   25 1   
    12    6    7 ar  
    13    6   26 1   
    14    7    8 ar  
    15    7   27 1   
    16    8   28 1   
    17    9   10 1   
    18    9   29 1   
    19    9   30 1   
    20   10   11 1   
    21   10   31 1   
    22   11   12 1   
    23   11   32 1   
    24   11   36 1   
    25   12   13 2   
    26   12   14 1   
    27   14   15 2   
    28   14   22 1   
    29   15   16 1   
    30   15   33 1   
    31   16   17 2   
    32   16   20 1   
    33   17   18 1   
    34   17   22 1   
    35   18   19 1   
    36   19   20 2   
    37   19   21 1   
    38   20   34 1   
    39   22   35 1   
@<TRIPOS>SUBSTRUCTURE
     1 2TH         1 TEMP              0 ****  ****    0 ROOT
