@<TRIPOS>MOLECULE
2TH
   36    39     1     0     0
SMALL
bcc


@<TRIPOS>ATOM
      1 O1          1.3730   -0.9240   -0.6160 oh        1 2TH     -0.586800
      2 C1          2.3400   -0.4540    0.2860 c3        1 2TH      0.193400
      3 C2          1.8910   -0.1650    1.6840 ca        1 2TH     -0.165300
      4 C3          2.3730    1.0880    2.1240 ca        1 2TH     -0.092300
      5 C4          2.0970    1.5370    3.4050 ca        1 2TH     -0.099000
      6 C5          1.3290    0.7220    4.2500 ca        1 2TH     -0.097000
      7 C6          0.8520   -0.5120    3.8130 ca        1 2TH     -0.114000
      8 C7          1.1310   -0.9690    2.5170 ca        1 2TH     -0.082000
      9 C8          3.1540    1.7820    1.0590 c3        1 2TH     -0.037100
     10 C9          2.8730    0.9450   -0.2120 c3        1 2TH      0.070500
     11 N1          4.0380    0.7890   -1.1300 ny        1 2TH     -0.661800
     12 C10         4.3520    2.0310   -1.9540 c         1 2TH      0.591700
     13 O2          3.7050    3.0400   -1.6960 o         1 2TH     -0.442100
     14 C11         5.3530    1.8630   -2.9700 cc        1 2TH     -0.305900
     15 C12         5.4920    2.7330   -4.0770 cd        1 2TH      0.074000
     16 C13         6.5030    2.1810   -4.9060 cd        1 2TH     -0.160000
     17 C14         6.9680    0.9650   -4.2600 cc        1 2TH     -0.069400
     18 S1          8.1390    0.2160   -5.1400 ss        1 2TH      0.166200
     19 C15         8.0960    1.4050   -6.3710 cc        1 2TH     -0.026700
     20 C16         7.1790    2.4080   -6.1350 cd        1 2TH     -0.060000
     21 Cl1         9.0960    1.2940   -7.6960 cl        1 2TH      0.025600
     22 N2          6.2140    0.7200   -3.1090 na        1 2TH     -0.132100
     23 HO1         0.5010   -0.6260   -0.3200 ho        1 2TH      0.437000
     24 H1          3.1510   -1.2380    0.2830 h1        1 2TH      0.084700
     25 H4          2.4650    2.5120    3.7570 ha        1 2TH      0.153000
     26 H5          1.1010    1.0670    5.2710 ha        1 2TH      0.156000
     27 H6          0.2470   -1.1380    4.4880 ha        1 2TH      0.157000
     28 H7          0.7540   -1.9450    2.1740 ha        1 2TH      0.154000
     29 H81         4.2420    1.8050    1.3260 hc        1 2TH      0.082700
     30 H82         2.8140    2.8380    0.9050 hc        1 2TH      0.082700
     31 H9          2.0530    1.4450   -0.8100 hx        1 2TH      0.129700
     32 HN1         3.8250    0.0200   -1.7810 hn        1 2TH      0.457300
     33 H12         4.9070    3.6380   -4.2560 ha        1 2TH      0.194000
     34 H16         6.9860    3.2610   -6.7930 ha        1 2TH      0.192000
     35 HN2         6.6990    0.3960   -2.3000 hn        1 2TH      0.273700
     36 H121        4.8660    0.5360   -0.5840 hn        1 2TH      0.457300
@<TRIPOS>BOND
     1    1    2 1   
     2    1   23 1   
     3    2    3 1   
     4    2   10 1   
     5    2   24 1   
     6    3    4 ar  
     7    3    8 ar  
     8    4    5 ar  
     9    4    9 1   
    10    5    6 ar  
    11    5   25 1   
    12    6    7 ar  
    13    6   26 1   
    14    7    8 ar  
    15    7   27 1   
    16    8   28 1   
    17    9   10 1   
    18    9   29 1   
    19    9   30 1   
    20   10   11 1   
    21   10   31 1   
    22   11   12 1   
    23   11   32 1   
    24   11   36 1   
    25   12   13 2   
    26   12   14 1   
    27   14   15 2   
    28   14   22 1   
    29   15   16 1   
    30   15   33 1   
    31   16   17 2   
    32   16   20 1   
    33   17   18 1   
    34   17   22 1   
    35   18   19 1   
    36   19   20 2   
    37   19   21 1   
    38   20   34 1   
    39   22   35 1   
@<TRIPOS>SUBSTRUCTURE
     1 2TH         1 TEMP              0 ****  ****    0 ROOT
