@<TRIPOS>MOLECULE
2TH
   35    38     1     0     0
SMALL
bcc


@<TRIPOS>ATOM
      1 O1          3.6940   -0.6770   -2.2470 oh        1 2TH     -0.581800
      2 C1          3.3750    0.1780   -1.1730 c3        1 2TH      0.183400
      3 C2          4.5690    0.7560   -0.4710 ca        1 2TH     -0.145300
      4 C3          4.4670    0.5970    0.9270 ca        1 2TH     -0.077300
      5 C4          5.4590    1.0860    1.7640 ca        1 2TH     -0.121000
      6 C5          6.5610    1.7360    1.1940 ca        1 2TH     -0.118000
      7 C6          6.6620    1.8890   -0.1870 ca        1 2TH     -0.136000
      8 C7          5.6610    1.3980   -1.0340 ca        1 2TH     -0.094000
      9 C8          3.2210   -0.1240    1.3060 c3        1 2TH     -0.061100
     10 C9          2.5900   -0.5870   -0.0410 c3        1 2TH      0.063700
     11 N1          1.1690   -0.3960   -0.1360 n         1 2TH     -0.560900
     12 C10         0.2790   -1.4330    0.1120 c         1 2TH      0.696700
     13 O2          0.6720   -2.5870    0.3700 o         1 2TH     -0.585100
     14 C11        -1.1640   -1.1240    0.0310 cc        1 2TH     -0.179900
     15 C12        -2.1810   -1.7800    0.7430 cd        1 2TH     -0.060000
     16 C13        -3.4120   -1.1720    0.3510 cd        1 2TH     -0.145000
     17 C14        -3.0840   -0.1490   -0.6210 cc        1 2TH     -0.066400
     18 S1         -4.4410    0.6450   -1.1650 ss        1 2TH      0.023200
     19 C15        -5.4750   -0.2920   -0.1700 cc        1 2TH     -0.024700
     20 C16        -4.8110   -1.2280    0.5920 cd        1 2TH     -0.071000
     21 CL1        -7.1270   -0.0360   -0.1820 cl        1 2TH     -0.032400
     22 N2         -1.7130   -0.0930   -0.7660 na        1 2TH     -0.136100
     23 HO1         4.2870   -1.3620   -1.9130 ho        1 2TH      0.407000
     24 H1          2.7580    0.9920   -1.6460 h1        1 2TH      0.086700
     25 H4          5.3870    0.9640    2.8540 ha        1 2TH      0.137000
     26 H5          7.3550    2.1270    1.8480 ha        1 2TH      0.134000
     27 H6          7.5350    2.4000   -0.6190 ha        1 2TH      0.135000
     28 H7          5.7400    1.5140   -2.1250 ha        1 2TH      0.143000
     29 H81         2.5380    0.5540    1.8790 hc        1 2TH      0.066200
     30 H82         3.4390   -1.0110    1.9510 hc        1 2TH      0.066200
     31 H9          2.7960   -1.6930   -0.1660 h1        1 2TH      0.097700
     32 HN1         0.8440    0.5400   -0.0750 hn        1 2TH      0.307500
     33 H12        -2.0400   -2.5930    1.4510 ha        1 2TH      0.176000
     34 H16        -5.2800   -1.9250    1.2910 ha        1 2TH      0.170000
     35 HN2        -1.2480    0.3100   -1.5400 hn        1 2TH      0.303700
@<TRIPOS>BOND
     1    1    2 1   
     2    1   23 1   
     3    2    3 1   
     4    2   10 1   
     5    2   24 1   
     6    3    4 ar  
     7    3    8 ar  
     8    4    5 ar  
     9    4    9 1   
    10    5    6 ar  
    11    5   25 1   
    12    6    7 ar  
    13    6   26 1   
    14    7    8 ar  
    15    7   27 1   
    16    8   28 1   
    17    9   10 1   
    18    9   29 1   
    19    9   30 1   
    20   10   11 1   
    21   10   31 1   
    22   11   12 1   
    23   11   32 1   
    24   12   13 2   
    25   12   14 1   
    26   14   15 2   
    27   14   22 1   
    28   15   16 1   
    29   15   33 1   
    30   16   17 2   
    31   16   20 1   
    32   17   18 1   
    33   17   22 1   
    34   18   19 1   
    35   19   20 2   
    36   19   21 1   
    37   20   34 1   
    38   22   35 1   
@<TRIPOS>SUBSTRUCTURE
     1 2TH         1 TEMP              0 ****  ****    0 ROOT
