@<TRIPOS>MOLECULE
2TH
   36    39     1     0     0
SMALL
bcc


@<TRIPOS>ATOM
      1 O1          1.0890   -0.9430   -0.4410 oh        1 2TH     -0.589800
      2 C1          2.1810   -0.4770    0.3060 c3        1 2TH      0.193400
      3 C2          1.9360   -0.1250    1.7390 ca        1 2TH     -0.164300
      4 C3          2.5240    1.1190    2.0630 ca        1 2TH     -0.091300
      5 C4          2.4430    1.6210    3.3520 ca        1 2TH     -0.099000
      6 C5          1.7660    0.8670    4.3220 ca        1 2TH     -0.096000
      7 C6          1.1850   -0.3570    4.0000 ca        1 2TH     -0.114000
      8 C7          1.2660   -0.8680    2.6970 ca        1 2TH     -0.082000
      9 C8          3.1780    1.7440    0.8760 c3        1 2TH     -0.037100
     10 C9          2.6840    0.8850   -0.3130 c3        1 2TH      0.068500
     11 N1          3.6950    0.6550   -1.3840 n4        1 2TH     -0.661800
     12 C10         3.9430    1.8610   -2.2800 c         1 2TH      0.591700
     13 O2          3.2440    2.8490   -2.0820 o         1 2TH     -0.441100
     14 C11         5.0000    1.7090   -3.2410 cc        1 2TH     -0.305900
     15 C12         5.6520    2.7990   -3.8650 cd        1 2TH      0.074000
     16 C13         6.6920    2.2520   -4.6600 cd        1 2TH     -0.161000
     17 C14         6.6360    0.8080   -4.5020 cc        1 2TH     -0.070400
     18 S1          7.8120    0.0540   -5.3710 ss        1 2TH      0.167200
     19 C15         8.4350    1.5300   -5.9730 cc        1 2TH     -0.027700
     20 C16         7.7520    2.6400   -5.5220 cd        1 2TH     -0.061000
     21 CL1         9.7420    1.5450   -7.0040 cl        1 2TH      0.025600
     22 N2          5.6490    0.4690   -3.5720 na        1 2TH     -0.133100
     23 HO1         0.2730   -0.6100   -0.0410 ho        1 2TH      0.438000
     24 H1          2.9610   -1.2880    0.2250 h1        1 2TH      0.085700
     25 H4          2.8940    2.5890    3.6140 ha        1 2TH      0.153000
     26 H5          1.6950    1.2540    5.3510 ha        1 2TH      0.156000
     27 H6          0.6550   -0.9340    4.7740 ha        1 2TH      0.157000
     28 H7          0.8080   -1.8360    2.4450 ha        1 2TH      0.153000
     29 H81         2.8650    2.8110    0.7350 hc        1 2TH      0.083200
     30 H82         4.2930    1.7220    0.9890 hc        1 2TH      0.083200
     31 H9          1.8020    1.4000   -0.8000 hx        1 2TH      0.130700
     32 HN1         3.3570   -0.1230   -1.9640 hn        1 2TH      0.457300
     33 H12         5.4030    3.8540   -3.7290 ha        1 2TH      0.194000
     34 H16         7.9840    3.6790   -5.7800 ha        1 2TH      0.192000
     35 HN2         5.0740   -0.3200   -3.7790 hn        1 2TH      0.274700
     36 H121        4.5880    0.3830   -0.9590 hn        1 2TH      0.457300
@<TRIPOS>BOND
     1    1    2 1   
     2    1   23 1   
     3    2    3 1   
     4    2   10 1   
     5    2   24 1   
     6    3    4 ar  
     7    3    8 ar  
     8    4    5 ar  
     9    4    9 1   
    10    5    6 ar  
    11    5   25 1   
    12    6    7 ar  
    13    6   26 1   
    14    7    8 ar  
    15    7   27 1   
    16    8   28 1   
    17    9   10 1   
    18    9   29 1   
    19    9   30 1   
    20   10   11 1   
    21   10   31 1   
    22   11   12 1   
    23   11   32 1   
    24   11   36 1   
    25   12   13 2   
    26   12   14 1   
    27   14   15 2   
    28   14   22 1   
    29   15   16 1   
    30   15   33 1   
    31   16   17 2   
    32   16   20 1   
    33   17   18 1   
    34   17   22 1   
    35   18   19 1   
    36   19   20 2   
    37   19   21 1   
    38   20   34 1   
    39   22   35 1   
@<TRIPOS>SUBSTRUCTURE
     1 2TH         1 TEMP              0 ****  ****    0 ROOT
