@<TRIPOS>MOLECULE
2TH
   35    32     1     0     0
SMALL
bcc


@<TRIPOS>ATOM
      1 O1         -0.5030    2.0990    0.6640 oh        1 2TH     -0.319000
      2 C1          0.9040    2.0920    0.6650 c3        1 2TH      0.058000
      3 C2          1.4260    2.0770    2.1250 c2        1 2TH     -0.144000
      4 C3          2.2150    0.9060    2.2980 c2        1 2TH     -0.065000
      5 C4          2.8350    0.6610    3.5170 c1        1 2TH     -0.122000
      6 C5          2.6840    1.5650    4.5720 c1        1 2TH     -0.127000
      7 C6          1.9020    2.7250    4.4010 c1        1 2TH     -0.127000
      8 C7          1.2770    2.9730    3.1750 c1        1 2TH     -0.090000
      9 C8          2.2050    0.1260    0.9710 c3        1 2TH     -0.139000
     10 C9          1.3930    0.8890   -0.0030 c3        1 2TH     -0.012000
     11 N1          0.2650    0.0790   -0.4450 n         1 2TH     -0.351000
     12 C10         0.1470   -0.2880   -1.8110 c2        1 2TH      0.370000
     13 O2          0.9860    0.0740   -2.6110 o         1 2TH     -0.385000
     14 C11        -1.0480   -1.0900   -2.2780 c2        1 2TH     -0.124000
     15 C12        -1.1140   -2.4890   -2.3750 c1        1 2TH     -0.097000
     16 C13        -2.3290   -2.8170   -2.8810 c2        1 2TH     -0.145000
     17 C14        -3.0480   -1.6100   -3.1100 c2        1 2TH     -0.301000
     18 S1         -4.4510   -1.9890   -3.6950 ss        1 2TH      0.554000
     19 C15        -4.5120   -3.5260   -3.7970 c1        1 2TH     -0.369000
     20 C16        -3.2590   -4.0510   -3.3180 c1        1 2TH     -0.074000
     21 CL1        -5.8170   -4.4560   -4.4840 cl        1 2TH      0.044000
     22 N2         -2.2510   -0.5690   -2.7370 n2        1 2TH     -0.109000
     23 HO1        -0.7950    2.9370    0.7280 ho        1 2TH      0.205000
     24 H1          1.2390    2.8860    0.2030 h1        1 2TH      0.132000
     25 H4          3.3770   -0.1420    3.6360 ha        1 2TH      0.138000
     26 H5          3.1200    1.3930    5.4280 ha        1 2TH      0.134500
     27 H6          1.7970    3.3560    5.1390 ha        1 2TH      0.134500
     28 H7          0.7360    3.7770    3.0580 ha        1 2TH      0.142000
     29 H81         1.8100   -0.7580    1.1100 hc        1 2TH      0.109000
     30 H82         3.1190    0.0310    0.6370 hc        1 2TH      0.109000
     31 H9          1.9430    1.1370   -0.7700 h1        1 2TH      0.130000
     32 HN1        -0.3580   -0.2030    0.1590 hn        1 2TH      0.234000
     33 H12        -0.4080   -3.1160   -2.1250 DU        1 2TH      0.201333
     34 H16        -3.0160   -4.9950   -3.2680 DU        1 2TH      0.201333
     35 HN2        -2.4710    0.3160   -2.7780 DU        1 2TH      0.201333
@<TRIPOS>BOND
     1    1    2 1   
     2    1   23 1   
     3    2    3 1   
     4    2   10 1   
     5    2   24 1   
     6    3    4 1   
     7    3    8 1   
     8    4    5 1   
     9    4    9 1   
    10    5   25 1   
    11    6    7 1   
    12    6   26 1   
    13    7   27 1   
    14    8   28 1   
    15    9   10 1   
    16    9   29 1   
    17    9   30 1   
    18   10   11 1   
    19   10   31 1   
    20   11   12 1   
    21   11   32 1   
    22   12   13 1   
    23   12   14 1   
    24   14   15 1   
    25   14   22 1   
    26   15   16 1   
    27   16   17 1   
    28   16   20 1   
    29   17   18 1   
    30   17   22 1   
    31   18   19 1   
    32   19   20 1   
@<TRIPOS>SUBSTRUCTURE
     1 2TH         1 TEMP              0 ****  ****    0 ROOT
