@<TRIPOS>MOLECULE
2TJ
   55    56     1     0     0
SMALL
bcc


@<TRIPOS>ATOM
      1 C11         3.4860    2.1940    0.3980 c3        1 2TJ      0.065100
      2 N3          2.5760    1.1080    0.7900 n4        1 2TJ     -0.691900
      3 S2          3.4660   -0.0990    1.9870 sy        1 2TJ      1.487200
      4 O3          4.4780   -0.5680    1.1780 o         1 2TJ     -0.563300
      5 O4          3.7010    0.7300    3.0640 o         1 2TJ     -0.563300
      6 C16         2.2510   -1.1260    2.1950 ca        1 2TJ     -0.560500
      7 C8          2.1020   -2.2630    1.3670 ca        1 2TJ      0.024500
      8 C9          1.1230   -3.2090    1.5980 ca        1 2TJ     -0.162500
      9 C7          1.3400   -0.9850    3.2630 ca        1 2TJ      0.024500
     10 C6          0.3500   -1.9200    3.5130 ca        1 2TJ     -0.162500
     11 C5          0.2310   -3.0680    2.6950 ca        1 2TJ      0.270600
     12 N1         -0.7650   -4.0640    2.9050 nh        1 2TJ     -0.380800
     13 C2         -1.1870   -4.3560    4.2930 c3        1 2TJ      0.237600
     14 C3         -0.4580   -5.5920    4.9070 c3        1 2TJ      0.208800
     15 C17        -2.6180   -4.4790    4.4170 c1        1 2TJ     -0.231100
     16 C18        -3.8030   -4.5270    4.5910 c1        1 2TJ     -0.036100
     17 C19        -5.2090   -4.5750    4.8230 c3        1 2TJ     -0.051000
     18 C1         -1.2530   -4.6630    1.8320 c1        1 2TJ     -0.044500
     19 C4          0.2030   -7.1270    3.1110 c3        1 2TJ      0.184100
     20 N2         -0.6200   -6.8620    4.2570 n3        1 2TJ     -0.809500
     21 S1         -1.3790   -8.0940    5.0090 sy        1 2TJ      1.493200
     22 O1         -0.5130   -9.1800    5.1830 o         1 2TJ     -0.614800
     23 O2         -2.1160   -7.6220    6.1010 o         1 2TJ     -0.614800
     24 C10        -2.5410   -8.6480    3.8380 ca        1 2TJ     -0.397800
     25 C12        -2.3660   -9.8820    3.2130 ca        1 2TJ      0.036000
     26 C13        -3.3730  -10.4040    2.3840 ca        1 2TJ     -0.217300
     27 C14        -4.5360   -9.6290    2.2280 ca        1 2TJ      0.490200
     28 N5         -5.6530  -10.1480    1.4040 n4        1 2TJ     -0.826300
     29 N4         -4.7290   -8.4070    2.8080 nb        1 2TJ     -0.667000
     30 C15        -3.7440   -7.9490    3.5900 ca        1 2TJ      0.531200
     31 H1          4.3870    1.7540   -0.1150 hx        1 2TJ      0.113367
     32 H2          2.9850    2.9120   -0.3060 hx        1 2TJ      0.113367
     33 H3          2.2620    0.6200   -0.0460 hn        1 2TJ      0.445800
     34 H6          2.8050   -2.4110    0.5240 ha        1 2TJ      0.174000
     35 H7          1.0130   -4.0740    0.9160 ha        1 2TJ      0.187000
     36 H8          1.4270   -0.1060    3.9330 ha        1 2TJ      0.174000
     37 H9         -0.3480   -1.7310    4.3470 ha        1 2TJ      0.187000
     38 H10        -0.8740   -3.4950    4.9690 h1        1 2TJ      0.094700
     39 H11         0.6420   -5.3390    4.9600 h1        1 2TJ      0.086200
     40 H12        -0.8500   -5.6690    5.9680 h1        1 2TJ      0.086200
     41 H13        -5.7430   -5.0250    3.9460 hc        1 2TJ      0.079367
     42 H14        -5.6130   -3.5410    4.9900 hc        1 2TJ      0.079367
     43 H15        -5.4330   -5.1890    5.7360 hc        1 2TJ      0.079367
     44 H16        -0.3550   -6.9080    2.1590 h1        1 2TJ      0.057033
     45 H17        -2.0750   -5.3860    2.0180 ha        1 2TJ      0.004500
     46 H18         1.1360   -6.5020    3.1240 h1        1 2TJ      0.057033
     47 H19         0.5180   -8.2080    3.1080 h1        1 2TJ      0.057033
     48 H20        -1.4420  -10.4740    3.3870 ha        1 2TJ      0.210000
     49 H21        -3.2360  -11.3850    1.9020 ha        1 2TJ      0.183000
     50 H22        -6.4460  -10.3860    2.0160 hn        1 2TJ      0.478800
     51 H23        -5.9600   -9.4340    0.7290 hn        1 2TJ      0.478800
     52 H24        -3.9430   -6.9590    4.0660 h4        1 2TJ      0.077100
     53 H25         3.8090    2.7560    1.3180 hx        1 2TJ      0.113367
     54 H32         1.7520    1.5100    1.2310 hn        1 2TJ      0.445800
     55 H53        -5.3440  -10.9870    0.9010 hn        1 2TJ      0.478800
@<TRIPOS>BOND
     1    1    2 1   
     2    1   31 1   
     3    1   32 1   
     4    1   53 1   
     5    2    3 1   
     6    2   33 1   
     7    2   54 1   
     8    3    4 2   
     9    3    5 2   
    10    3    6 1   
    11    6    7 ar  
    12    6    9 ar  
    13    7    8 ar  
    14    7   34 1   
    15    8   11 ar  
    16    8   35 1   
    17    9   10 ar  
    18    9   36 1   
    19   10   11 ar  
    20   10   37 1   
    21   11   12 1   
    22   12   13 1   
    23   12   18 3   
    24   13   14 1   
    25   13   15 1   
    26   13   38 1   
    27   14   20 1   
    28   14   39 1   
    29   14   40 1   
    30   15   16 3   
    31   16   17 1   
    32   17   41 1   
    33   17   42 1   
    34   17   43 1   
    35   18   45 1   
    36   19   20 1   
    37   19   44 1   
    38   19   46 1   
    39   19   47 1   
    40   20   21 1   
    41   21   22 2   
    42   21   23 2   
    43   21   24 1   
    44   24   25 ar  
    45   24   30 ar  
    46   25   26 ar  
    47   25   48 1   
    48   26   27 ar  
    49   26   49 1   
    50   27   28 1   
    51   27   29 ar  
    52   28   50 1   
    53   28   51 1   
    54   28   55 1   
    55   29   30 ar  
    56   30   52 1   
@<TRIPOS>SUBSTRUCTURE
     1 2TJ         1 TEMP              0 ****  ****    0 ROOT
