@<TRIPOS>MOLECULE
2TJ
   54    55     1     0     0
SMALL
bcc


@<TRIPOS>ATOM
      1 C11         1.3200    1.9190    0.2800 c3        1 2TJ      0.098100
      2 N3          1.5040    0.4840    0.1560 n3        1 2TJ     -1.006800
      3 S2          3.0900   -0.2850    1.5960 s4        1 2TJ      1.681300
      4 O3          4.0190   -0.4830    0.6130 o         1 2TJ     -0.460400
      5 O4          3.1050    0.8260    2.3910 o         1 2TJ     -0.460400
      6 C16         2.2890   -1.5030    2.0790 ca        1 2TJ     -0.715500
      7 C8          2.3780   -2.7780    1.4400 ca        1 2TJ      0.061500
      8 C9          1.7430   -3.8890    1.9100 ca        1 2TJ     -0.235500
      9 C7          1.4310   -1.4500    3.2200 ca        1 2TJ      0.061500
     10 C6          0.7830   -2.5430    3.7120 ca        1 2TJ     -0.235500
     11 C5          0.9540   -3.8500    3.1200 ca        1 2TJ      0.319600
     12 N1          0.4420   -4.9710    3.6860 nh        1 2TJ     -0.578000
     13 C2         -0.4420   -4.8730    4.8610 c3        1 2TJ      0.288600
     14 C3         -0.5020   -6.1960    5.6920 c3        1 2TJ      0.224800
     15 C17        -1.7780   -4.4420    4.5220 c1        1 2TJ     -0.240100
     16 C18        -2.9030   -4.1040    4.2860 c1        1 2TJ     -0.035100
     17 C19        -4.2480   -3.7120    4.0190 c3        1 2TJ     -0.049000
     18 C1          0.5250   -6.2510    2.9950 c3        1 2TJ      0.169800
     19 C4          0.3820   -7.4970    3.9010 c3        1 2TJ      0.229800
     20 N2         -0.6390   -7.3750    4.8950 n3        1 2TJ     -0.801500
     21 S1         -1.7910   -8.5350    5.1720 sy        1 2TJ      1.541200
     22 O1         -1.1490   -9.7830    5.2690 o         1 2TJ     -0.643300
     23 O2         -2.5600   -8.1020    6.2690 o         1 2TJ     -0.643300
     24 C10        -2.7020   -8.5160    3.7910 ca        1 2TJ     -0.616800
     25 C12        -2.6580   -9.5800    2.8670 ca        1 2TJ      0.063000
     26 C13        -3.4850   -9.5910    1.7640 ca        1 2TJ     -0.347300
     27 C14        -4.3980   -8.4950    1.5670 ca        1 2TJ      0.735200
     28 N5         -5.2080   -8.4680    0.4620 nh        1 2TJ     -0.945500
     29 N4         -4.4500   -7.4410    2.4660 nb        1 2TJ     -0.763000
     30 C15        -3.6330   -7.4880    3.5140 ca        1 2TJ      0.569200
     31 H1          1.1200    2.1720    1.3570 h1        1 2TJ      0.078367
     32 H2          2.2590    2.4450   -0.0430 h1        1 2TJ      0.078367
     33 H3          1.8120    0.2520   -0.7760 hn        1 2TJ      0.402800
     34 H6          3.0010   -2.8570    0.5270 ha        1 2TJ      0.161500
     35 H7          1.8400   -4.8270    1.3410 ha        1 2TJ      0.168500
     36 H8          1.3000   -0.4710    3.7230 ha        1 2TJ      0.161500
     37 H9          0.1060   -2.4120    4.5730 ha        1 2TJ      0.168500
     38 H10         0.0190   -4.1110    5.5690 h1        1 2TJ      0.089700
     39 H11         0.4510   -6.2520    6.2960 h1        1 2TJ      0.086700
     40 H12        -1.3730   -6.1080    6.4070 h1        1 2TJ      0.086700
     41 H13        -4.7880   -4.5250    3.4650 hc        1 2TJ      0.077033
     42 H14        -4.2720   -2.7790    3.3970 hc        1 2TJ      0.077033
     43 H15        -4.7940   -3.5130    4.9790 hc        1 2TJ      0.077033
     44 H16         1.5350   -6.3450    2.5040 h1        1 2TJ      0.071700
     45 H17        -0.2730   -6.2740    2.1990 h1        1 2TJ      0.071700
     46 H18         0.1510   -8.3740    3.2290 h1        1 2TJ      0.069700
     47 H19         1.3780   -7.6890    4.3970 h1        1 2TJ      0.069700
     48 H20        -1.9620  -10.4210    3.0470 ha        1 2TJ      0.169000
     49 H21        -3.4590  -10.4260    1.0500 ha        1 2TJ      0.157000
     50 H22        -5.9070   -7.7710    0.3660 hn        1 2TJ      0.447800
     51 H23        -5.2680   -9.2810   -0.1000 hn        1 2TJ      0.447800
     52 H24        -3.7290   -6.6280    4.2130 h4        1 2TJ      0.033100
     53 H25         0.4670    2.2960   -0.3450 h1        1 2TJ      0.078367
     54 H32         0.6370    0.0020    0.3330 hn        1 2TJ      0.402800
@<TRIPOS>BOND
     1    1    2 1   
     2    1   31 1   
     3    1   32 1   
     4    1   53 1   
     5    2   33 1   
     6    2   54 1   
     7    3    4 1   
     8    3    5 1   
     9    3    6 1   
    10    6    7 ar  
    11    6    9 ar  
    12    7    8 ar  
    13    7   34 1   
    14    8   11 ar  
    15    8   35 1   
    16    9   10 ar  
    17    9   36 1   
    18   10   11 ar  
    19   10   37 1   
    20   11   12 1   
    21   12   13 1   
    22   12   18 1   
    23   13   14 1   
    24   13   15 1   
    25   13   38 1   
    26   14   20 1   
    27   14   39 1   
    28   14   40 1   
    29   15   16 3   
    30   16   17 1   
    31   17   41 1   
    32   17   42 1   
    33   17   43 1   
    34   18   19 1   
    35   18   44 1   
    36   18   45 1   
    37   19   20 1   
    38   19   46 1   
    39   19   47 1   
    40   20   21 1   
    41   21   22 2   
    42   21   23 2   
    43   21   24 1   
    44   24   25 ar  
    45   24   30 ar  
    46   25   26 ar  
    47   25   48 1   
    48   26   27 ar  
    49   26   49 1   
    50   27   28 1   
    51   27   29 ar  
    52   28   50 1   
    53   28   51 1   
    54   29   30 ar  
    55   30   52 1   
@<TRIPOS>SUBSTRUCTURE
     1 2TJ         1 TEMP              0 ****  ****    0 ROOT
