@<TRIPOS>MOLECULE
2TJ
   54    55     1     0     0
SMALL
bcc


@<TRIPOS>ATOM
      1 C11         1.2660    1.8280    0.0030 c3        1 2TJ      0.098100
      2 N3          1.4820    0.3930   -0.0450 n8        1 2TJ     -1.006800
      3 S2          3.0470   -0.2690    1.4690 s4        1 2TJ      1.681300
      4 O3          4.0050   -0.4940    0.5200 o         1 2TJ     -0.460400
      5 O4          3.0170    0.8790    2.2080 o         1 2TJ     -0.460400
      6 C16         2.2600   -1.4800    1.9910 ca        1 2TJ     -0.715500
      7 C8          2.3920   -2.7820    1.4190 ca        1 2TJ      0.061500
      8 C9          1.7680   -3.8830    1.9270 ca        1 2TJ     -0.235500
      9 C7          1.3720   -1.3900    3.1070 ca        1 2TJ      0.061500
     10 C6          0.7340   -2.4720    3.6360 ca        1 2TJ     -0.235500
     11 C5          0.9470   -3.8030    3.1130 ca        1 2TJ      0.319600
     12 N1          0.4450   -4.9060    3.7210 nh        1 2TJ     -0.578000
     13 C2         -0.4700   -4.7710    4.8680 c3        1 2TJ      0.288600
     14 C3         -0.5230   -6.0520    5.7620 c3        1 2TJ      0.224800
     15 C17        -1.8070   -4.3880    4.4760 c1        1 2TJ     -0.240100
     16 C18        -2.9320   -4.0870    4.1960 c1        1 2TJ     -0.035100
     17 C19        -4.2770   -3.7390    3.8770 c3        1 2TJ     -0.049000
     18 C1          0.5730   -6.2160    3.0970 c3        1 2TJ      0.169800
     19 C4          0.4330   -7.4190    4.0590 c3        1 2TJ      0.229800
     20 N2         -0.6140   -7.2720    5.0210 n3        1 2TJ     -0.801500
     21 S1         -1.7470   -8.4430    5.3290 sy        1 2TJ      1.541200
     22 O1         -1.0800   -9.6700    5.5020 o         1 2TJ     -0.643300
     23 O2         -2.5520   -7.9750    6.3850 o         1 2TJ     -0.643300
     24 C10        -2.6240   -8.5120    3.9280 ca        1 2TJ     -0.616800
     25 C12        -2.5350   -9.6190    3.0580 ca        1 2TJ      0.063000
     26 C13        -3.3350   -9.7030    1.9380 ca        1 2TJ     -0.347300
     27 C14        -4.2670   -8.6390    1.6670 ca        1 2TJ      0.735200
     28 N5         -5.0500   -8.6840    0.5440 nv        1 2TJ     -0.945500
     29 N4         -4.3630   -7.5430    2.5110 nb        1 2TJ     -0.763000
     30 C15        -3.5710   -7.5210    3.5790 ca        1 2TJ      0.569200
     31 H1          1.0330    2.1300    1.0600 h1        1 2TJ      0.078367
     32 H2          2.2010    2.3580   -0.3240 h1        1 2TJ      0.078367
     33 H3          1.8180    0.1220   -0.9570 hn        1 2TJ      0.402800
     34 H6          3.0390   -2.8920    0.5260 ha        1 2TJ      0.161500
     35 H7          1.9000   -4.8450    1.4070 ha        1 2TJ      0.168500
     36 H8          1.2060   -0.3920    3.5580 ha        1 2TJ      0.161500
     37 H9          0.0320   -2.3140    4.4720 ha        1 2TJ      0.168500
     38 H10        -0.0440   -3.9640    5.5480 h1        1 2TJ      0.089700
     39 H11         0.4160   -6.0570    6.3910 h1        1 2TJ      0.086700
     40 H12        -1.4130   -5.9490    6.4500 h1        1 2TJ      0.086700
     41 H13        -4.3060   -2.8410    3.2060 hc        1 2TJ      0.077033
     42 H14        -4.8510   -3.5030    4.8120 hc        1 2TJ      0.077033
     43 H15        -4.7870   -4.5920    3.3540 hc        1 2TJ      0.077033
     44 H16         1.5970   -6.3110    2.6340 h1        1 2TJ      0.071700
     45 H17        -0.2050   -6.2950    2.2840 h1        1 2TJ      0.071700
     46 H18         0.2380   -8.3320    3.4260 h1        1 2TJ      0.069700
     47 H19         1.4210   -7.5640    4.5880 h1        1 2TJ      0.069700
     48 H20        -1.8250  -10.4340    3.2960 ha        1 2TJ      0.169000
     49 H21        -3.2740  -10.5710    1.2680 ha        1 2TJ      0.157000
     50 H22        -5.7610   -8.0090    0.3970 hn        1 2TJ      0.447800
     51 H23        -5.0790   -9.5250    0.0210 hn        1 2TJ      0.447800
     52 H24        -3.7020   -6.6300    4.2320 h4        1 2TJ      0.033100
     53 H25         0.4210    2.1550   -0.6610 h1        1 2TJ      0.078367
     54 H32         0.6210   -0.0980    0.1340 hn        1 2TJ      0.402800
@<TRIPOS>BOND
     1    1    2 1   
     2    1   31 1   
     3    1   32 1   
     4    1   53 1   
     5    2   33 1   
     6    2   54 1   
     7    3    4 1   
     8    3    5 1   
     9    3    6 1   
    10    6    7 ar  
    11    6    9 ar  
    12    7    8 ar  
    13    7   34 1   
    14    8   11 ar  
    15    8   35 1   
    16    9   10 ar  
    17    9   36 1   
    18   10   11 ar  
    19   10   37 1   
    20   11   12 1   
    21   12   13 1   
    22   12   18 1   
    23   13   14 1   
    24   13   15 1   
    25   13   38 1   
    26   14   20 1   
    27   14   39 1   
    28   14   40 1   
    29   15   16 3   
    30   16   17 1   
    31   17   41 1   
    32   17   42 1   
    33   17   43 1   
    34   18   19 1   
    35   18   44 1   
    36   18   45 1   
    37   19   20 1   
    38   19   46 1   
    39   19   47 1   
    40   20   21 1   
    41   21   22 2   
    42   21   23 2   
    43   21   24 1   
    44   24   25 ar  
    45   24   30 ar  
    46   25   26 ar  
    47   25   48 1   
    48   26   27 ar  
    49   26   49 1   
    50   27   28 1   
    51   27   29 ar  
    52   28   50 1   
    53   28   51 1   
    54   29   30 ar  
    55   30   52 1   
@<TRIPOS>SUBSTRUCTURE
     1 2TJ         1 TEMP              0 ****  ****    0 ROOT
