@<TRIPOS>MOLECULE
2TK
   42    43     1     0     0
SMALL
bcc


@<TRIPOS>ATOM
      1 C01        -0.0470   -0.3840    0.1750 ca        1 2TK     -0.159000
      2 C02         1.3440   -0.4060    0.1530 ca        1 2TK     -0.093000
      3 C03         2.0630   -0.1730    1.3300 ca        1 2TK      0.044100
      4 C04         1.3770    0.0790    2.5360 ca        1 2TK      0.130100
      5 C05        -0.0260    0.1020    2.5460 ca        1 2TK     -0.210000
      6 C06        -0.7380   -0.1300    1.3670 ca        1 2TK     -0.032300
      7 C07        -2.2270   -0.0970    1.3720 c3        1 2TK     -0.042100
      8 C08        -2.8200   -1.4860    1.2310 c3        1 2TK     -0.076400
      9 C09        -4.3320   -1.4300    1.2000 c3        1 2TK     -0.080400
     10 C10        -4.9280   -2.8140    1.0630 c3        1 2TK     -0.079400
     11 C11        -6.4410   -2.7610    1.0300 c3        1 2TK     -0.080400
     12 C12        -7.0390   -4.1380    0.8940 c3        1 2TK     -0.093100
     13 O13         2.1300    0.2870    3.6640 oh        1 2TK     -0.475100
     14 O14         3.4480   -0.0300    1.2730 os        1 2TK     -0.221200
     15 C15         4.1940   -1.1950    1.4080 ca        1 2TK      0.155100
     16 C16         5.5790   -1.0880    1.1690 ca        1 2TK     -0.052900
     17 C17         6.3700   -2.2340    1.3150 ca        1 2TK     -0.080000
     18 C18         5.8060   -3.4530    1.6800 ca        1 2TK     -0.164000
     19 C19         4.4330   -3.5460    1.9120 ca        1 2TK     -0.087000
     20 C20         3.6250   -2.4220    1.7780 ca        1 2TK     -0.188000
     21 Br1         6.4180    0.5100    0.6690 br        1 2TK     -0.070100
     22 H1         -0.6110   -0.5640   -0.7520 ha        1 2TK      0.141000
     23 H2          1.8910   -0.5950   -0.7830 ha        1 2TK      0.153000
     24 H3         -0.5590    0.3060    3.4860 ha        1 2TK      0.139000
     25 H4         -2.6000    0.3730    2.3210 hc        1 2TK      0.051700
     26 H5         -2.5820    0.5470    0.5220 hc        1 2TK      0.051700
     27 H6         -2.4830   -2.1280    2.0880 hc        1 2TK      0.045200
     28 H7         -2.4380   -1.9620    0.2890 hc        1 2TK      0.045200
     29 H8         -4.6680   -0.7890    0.3420 hc        1 2TK      0.040200
     30 H9         -4.7110   -0.9490    2.1400 hc        1 2TK      0.040200
     31 H10        -4.5930   -3.4550    1.9210 hc        1 2TK      0.040700
     32 H11        -4.5490   -3.2960    0.1240 hc        1 2TK      0.040700
     33 H12        -6.8180   -2.2770    1.9700 hc        1 2TK      0.038700
     34 H13        -6.7740   -2.1190    0.1720 hc        1 2TK      0.038700
     35 H14        -6.7390   -4.7850    1.7530 hc        1 2TK      0.033033
     36 H15        -8.1540   -4.0760    0.8720 hc        1 2TK      0.033033
     37 H16        -6.6940   -4.6270   -0.0490 hc        1 2TK      0.033033
     38 H17         1.5250    0.5100    4.3880 ho        1 2TK      0.420000
     39 H18         7.4550   -2.1730    1.1360 ha        1 2TK      0.146000
     40 H19         6.4450   -4.3410    1.7870 ha        1 2TK      0.138000
     41 H20         3.9860   -4.5080    2.2040 ha        1 2TK      0.135000
     42 H21         2.5430   -2.4860    1.9670 ha        1 2TK      0.149000
@<TRIPOS>BOND
     1    1    2 ar  
     2    1    6 ar  
     3    1   22 1   
     4    2    3 ar  
     5    2   23 1   
     6    3    4 ar  
     7    3   14 1   
     8    4    5 ar  
     9    4   13 1   
    10    5    6 ar  
    11    5   24 1   
    12    6    7 1   
    13    7    8 1   
    14    7   25 1   
    15    7   26 1   
    16    8    9 1   
    17    8   27 1   
    18    8   28 1   
    19    9   10 1   
    20    9   29 1   
    21    9   30 1   
    22   10   11 1   
    23   10   31 1   
    24   10   32 1   
    25   11   12 1   
    26   11   33 1   
    27   11   34 1   
    28   12   35 1   
    29   12   36 1   
    30   12   37 1   
    31   13   38 1   
    32   14   15 1   
    33   15   16 ar  
    34   15   20 ar  
    35   16   17 ar  
    36   16   21 1   
    37   17   18 ar  
    38   17   39 1   
    39   18   19 ar  
    40   18   40 1   
    41   19   20 ar  
    42   19   41 1   
    43   20   42 1   
@<TRIPOS>SUBSTRUCTURE
     1 2TK         1 TEMP              0 ****  ****    0 ROOT
