@<TRIPOS>MOLECULE
2TK
   42    43     1     0     0
SMALL
bcc


@<TRIPOS>ATOM
      1 C01        -0.0460   -0.3970    0.1660 ca        1 2TK     -0.159000
      2 C02         1.3450   -0.4200    0.1430 ca        1 2TK     -0.093000
      3 C03         2.0640   -0.1730    1.3180 ca        1 2TK      0.044100
      4 C04         1.3770    0.0910    2.5210 ca        1 2TK      0.130100
      5 C05        -0.0250    0.1150    2.5310 ca        1 2TK     -0.210000
      6 C06        -0.7370   -0.1300    1.3550 ca        1 2TK     -0.032300
      7 C07        -2.2260   -0.0960    1.3590 c3        1 2TK     -0.042100
      8 C08        -2.8190   -1.4870    1.2320 c3        1 2TK     -0.076400
      9 C09        -4.3320   -1.4310    1.1990 c3        1 2TK     -0.080400
     10 C10        -4.9280   -2.8160    1.0760 c3        1 2TK     -0.079400
     11 C11        -6.4410   -2.7630    1.0420 c3        1 2TK     -0.080400
     12 C12        -7.0390   -4.1410    0.9190 c3        1 2TK     -0.093100
     13 O13         2.1310    0.3110    3.6470 oh        1 2TK     -0.475100
     14 O14         3.4490   -0.0320    1.2600 os        1 2TK     -0.221200
     15 C15         4.1940   -1.1960    1.4010 ca        1 2TK      0.154100
     16 C16         5.5760   -1.0970    1.1420 ca        1 2TK     -0.052900
     17 C17         6.3660   -2.2410    1.2960 ca        1 2TK     -0.081000
     18 C18         5.8040   -3.4530    1.6900 ca        1 2TK     -0.164000
     19 C19         4.4350   -3.5390    1.9420 ca        1 2TK     -0.087000
     20 C20         3.6280   -2.4150    1.8000 ca        1 2TK     -0.187000
     21 BR1         6.4110    0.4910    0.6030 br        1 2TK     -0.070100
     22 H1         -0.6110   -0.5870   -0.7590 ha        1 2TK      0.141000
     23 H2          1.8920   -0.6190   -0.7910 ha        1 2TK      0.153000
     24 H3         -0.5580    0.3300    3.4690 ha        1 2TK      0.139000
     25 H4         -2.5990    0.3820    2.3040 hc        1 2TK      0.051700
     26 H5         -2.5810    0.5390    0.5030 hc        1 2TK      0.051700
     27 H6         -2.4840   -2.1200    2.0950 hc        1 2TK      0.045200
     28 H7         -2.4380   -1.9720    0.2960 hc        1 2TK      0.045200
     29 H8         -4.6670   -0.7990    0.3350 hc        1 2TK      0.040200
     30 H9         -4.7110   -0.9400    2.1340 hc        1 2TK      0.040200
     31 H10        -4.5940   -3.4480    1.9410 hc        1 2TK      0.040700
     32 H11        -4.5480   -3.3080    0.1420 hc        1 2TK      0.040700
     33 H12        -6.8190   -2.2700    1.9760 hc        1 2TK      0.038700
     34 H13        -6.7730   -2.1300    0.1770 hc        1 2TK      0.038700
     35 H14        -6.7400   -4.7800    1.7850 hc        1 2TK      0.033033
     36 H15        -8.1540   -4.0790    0.8960 hc        1 2TK      0.033033
     37 H16        -6.6940   -4.6390   -0.0190 hc        1 2TK      0.033033
     38 H17         1.5260    0.5450    4.3680 ho        1 2TK      0.420000
     39 H18         7.4490   -2.1860    1.1020 ha        1 2TK      0.146000
     40 H19         6.4430   -4.3400    1.8040 ha        1 2TK      0.138000
     41 H20         3.9900   -4.4940    2.2570 ha        1 2TK      0.136000
     42 H21         2.5490   -2.4740    2.0060 ha        1 2TK      0.149000
@<TRIPOS>BOND
     1    1    2 ar  
     2    1    6 ar  
     3    1   22 1   
     4    2    3 ar  
     5    2   23 1   
     6    3    4 ar  
     7    3   14 1   
     8    4    5 ar  
     9    4   13 1   
    10    5    6 ar  
    11    5   24 1   
    12    6    7 1   
    13    7    8 1   
    14    7   25 1   
    15    7   26 1   
    16    8    9 1   
    17    8   27 1   
    18    8   28 1   
    19    9   10 1   
    20    9   29 1   
    21    9   30 1   
    22   10   11 1   
    23   10   31 1   
    24   10   32 1   
    25   11   12 1   
    26   11   33 1   
    27   11   34 1   
    28   12   35 1   
    29   12   36 1   
    30   12   37 1   
    31   13   38 1   
    32   14   15 1   
    33   15   16 ar  
    34   15   20 ar  
    35   16   17 ar  
    36   16   21 1   
    37   17   18 ar  
    38   17   39 1   
    39   18   19 ar  
    40   18   40 1   
    41   19   20 ar  
    42   19   41 1   
    43   20   42 1   
@<TRIPOS>SUBSTRUCTURE
     1 2TK         1 TEMP              0 ****  ****    0 ROOT
