@<TRIPOS>MOLECULE
2TL
   16    15     1     0     0
SMALL
bcc


@<TRIPOS>ATOM
      1 N           0.2170    1.9280    0.4450 n3        1 2TL     -0.884800
      2 CA          0.1170    0.4770    0.5240 c3        1 2TL     -0.014500
      3 CB          1.2310   -0.2520   -0.2590 c3        1 2TL      0.173100
      4 OG1         1.3590   -1.5940    0.1890 oh        1 2TL     -0.654800
      5 CG2         2.6000    0.3840   -0.0810 c3        1 2TL     -0.081100
      6 C          -1.2680   -0.0860    0.0670 c         1 2TL      0.884600
      7 O          -2.1830    0.7320   -0.2250 o         1 2TL     -0.843300
      8 OXT        -1.4060   -1.3440    0.0320 o         1 2TL     -0.843300
      9 H           0.2970    2.1890   -0.5230 hn        1 2TL      0.332300
     10 H2         -0.6610    2.3040    0.7670 hn        1 2TL      0.332300
     11 HA          0.2320    0.2020    1.6120 h1        1 2TL      0.053700
     12 HB          0.9580   -0.2640   -1.3530 h1        1 2TL      0.018700
     13 HG1         0.4620   -1.9700    0.2200 ho        1 2TL      0.451000
     14 HG21        2.7880    0.6010    0.9960 hc        1 2TL      0.025700
     15 HG22        3.3920   -0.3130   -0.4480 hc        1 2TL      0.025700
     16 HG23        2.6590    1.3360   -0.6580 hc        1 2TL      0.025700
@<TRIPOS>BOND
     1    1    2 1   
     2    1    9 1   
     3    1   10 1   
     4    2    3 1   
     5    2    6 1   
     6    2   11 1   
     7    3    4 1   
     8    3    5 1   
     9    3   12 1   
    10    4   13 1   
    11    5   14 1   
    12    5   15 1   
    13    5   16 1   
    14    6    7 1   
    15    6    8 1   
@<TRIPOS>SUBSTRUCTURE
     1 2TL         1 TEMP              0 ****  ****    0 ROOT
