@<TRIPOS>MOLECULE
2TL
   16    15     1     0     0
SMALL
bcc


@<TRIPOS>ATOM
      1 N          -1.7380   -0.0830   -0.7790 n3        1 2TL     -0.884800
      2 CA         -0.3200   -0.0080   -0.6900 c3        1 2TL     -0.014500
      3 CB          0.0920    0.0190    0.7630 c3        1 2TL      0.173100
      4 OG1         0.9000    1.1480    1.0010 oh        1 2TL     -0.654800
      5 CG2         0.8700   -1.2350    1.0900 c3        1 2TL     -0.081100
      6 C           0.1620    1.2500   -1.3750 c         1 2TL      0.884600
      7 O           1.1380    1.2000   -2.1690 o         1 2TL     -0.843300
      8 OXT        -0.4120    2.3480   -1.1510 o         1 2TL     -0.843300
      9 H          -2.0040    0.1620   -1.6210 hn        1 2TL      0.332300
     10 H2         -2.0100   -0.9410   -0.6100 hn        1 2TL      0.332300
     11 HA          0.0750   -0.7880   -1.1260 h1        1 2TL      0.053700
     12 HB         -0.7050    0.0650    1.3270 h1        1 2TL      0.018700
     13 HG1         0.8380    1.3820    1.8560 ho        1 2TL      0.451000
     14 HG21        0.3240   -2.0220    0.8820 hc        1 2TL      0.025700
     15 HG22        1.0980   -1.2390    2.0440 hc        1 2TL      0.025700
     16 HG23        1.6920   -1.2580    0.5580 hc        1 2TL      0.025700
@<TRIPOS>BOND
     1    1    2 1   
     2    1    9 1   
     3    1   10 1   
     4    2    3 1   
     5    2    6 1   
     6    2   11 1   
     7    3    4 1   
     8    3    5 1   
     9    3   12 1   
    10    4   13 1   
    11    5   14 1   
    12    5   15 1   
    13    5   16 1   
    14    6    7 1   
    15    6    8 1   
@<TRIPOS>SUBSTRUCTURE
     1 2TL         1 TEMP              0 ****  ****    0 ROOT
