@<TRIPOS>MOLECULE
2TM
   44    45     1     0     0
SMALL
bcc


@<TRIPOS>ATOM
      1 O5'         0.0000    0.0000    0.0000 os        1 2TM     -0.504200
      2 C5'         1.4290    0.0000    0.0000 c3        1 2TM      0.304400
      3 C4'         1.9390    0.0000    1.4430 c3        1 2TM      0.136100
      4 O4'         1.5980   -1.2420    2.0820 os        1 2TM     -0.337600
      5 C3'         3.4760    0.1180    1.4560 c3        1 2TM      0.134100
      6 O3'         3.8800    1.2950    2.1580 oh        1 2TM     -0.581800
      7 C2'         3.9470   -1.1500    2.2070 c3        1 2TM      0.103100
      8 O2'         5.0230   -0.8470    3.0980 oh        1 2TM     -0.586800
      9 C1'         2.6720   -1.5550    2.9950 c3        1 2TM      0.234500
     10 C5          2.7730   -4.7260    4.8730 cc        1 2TM     -0.210600
     11 C6          2.7590   -3.4000    4.6000 cd        1 2TM     -0.271400
     12 N1          2.6880   -2.9870    3.3040 n         1 2TM     -0.031000
     13 C2          2.6300   -3.8870    2.3050 c         1 2TM      0.753900
     14 N3          2.6430   -5.1950    2.5570 nd        1 2TM     -0.881100
     15 C4          2.7180   -5.6440    3.8030 cc        1 2TM     -0.185500
     16 O3G        -7.8160    0.0830   -1.9870 o         1 2TM     -0.501833
     17 PG         -6.5520    0.3390   -2.9500 p5        1 2TM      0.858900
     18 O1G        -6.6880    1.7890   -3.6390 o         1 2TM     -0.501833
     19 O2G        -6.5110   -0.7040   -3.9990 o         1 2TM     -0.501833
     20 O3B        -5.1960    0.2810   -2.0840 os        1 2TM     -0.490800
     21 PB         -3.6360    0.1490   -2.4570 p5        1 2TM      0.739600
     22 O1B        -3.1980    1.3930   -3.3810 o         1 2TM     -0.467500
     23 O2B        -3.4090   -1.1150   -3.1920 o         1 2TM     -0.467500
     24 PA         -0.8760   -0.0000   -1.3510 p5        1 2TM      0.665600
     25 O1A        -0.6300   -1.3760   -2.1500 o         1 2TM     -0.610500
     26 O2A        -0.4730    1.1430   -2.2000 o         1 2TM     -0.610500
     27 N4          2.7310   -6.9970    4.0520 nz        1 2TM      0.354400
     28 O2          2.5660   -3.4990    1.1510 o         1 2TM     -0.801500
     29 C1         -2.6440    0.1490   -0.9280 c3        1 2TM      0.100200
     30 H1          1.7900    0.8850   -0.5110 h1        1 2TM     -0.010800
     31 H2          1.7910   -0.8840   -0.5110 h1        1 2TM     -0.010800
     32 H3          1.5030    0.8260    1.9930 h1        1 2TM      0.008700
     33 H4          3.8610    0.1220    0.4440 h1        1 2TM      0.006700
     34 H5          4.3370    1.8720    1.5680 ho        1 2TM      0.362000
     35 H6          4.2260   -1.9270    1.5060 h1        1 2TM      0.068700
     36 H7          5.7660   -1.3900    2.8910 ho        1 2TM      0.364000
     37 H8          2.5830   -0.9650    3.8990 h2        1 2TM      0.000700
     38 H9          3.0150   -5.0720    5.8710 ha        1 2TM      0.040000
     39 H10         2.8010   -2.6750    5.4040 h4        1 2TM      0.083000
     40 H15         3.6090   -7.2540    4.4580 hn        1 2TM      0.066133
     41 H16         1.9910   -7.2270    4.6850 hn        1 2TM      0.066133
     42 H17        -2.9380   -0.6880   -0.3070 hc        1 2TM      0.025200
     43 H18        -2.8090    1.0740   -0.3900 hc        1 2TM      0.025200
     44 H43         2.6020   -7.4950    3.1930 hn        1 2TM      0.066133
@<TRIPOS>BOND
     1    1    2 1   
     2    1   24 1   
     3    2    3 1   
     4    2   30 1   
     5    2   31 1   
     6    3    4 1   
     7    3    5 1   
     8    3   32 1   
     9    4    9 1   
    10    5    6 1   
    11    5    7 1   
    12    5   33 1   
    13    6   34 1   
    14    7    8 1   
    15    7    9 1   
    16    7   35 1   
    17    8   36 1   
    18    9   12 1   
    19    9   37 1   
    20   10   11 2   
    21   10   15 1   
    22   10   38 1   
    23   11   12 1   
    24   11   39 1   
    25   12   13 1   
    26   13   14 1   
    27   13   28 2   
    28   14   15 2   
    29   15   27 1   
    30   16   17 1   
    31   17   18 1   
    32   17   19 1   
    33   17   20 1   
    34   20   21 1   
    35   21   22 1   
    36   21   23 1   
    37   21   29 1   
    38   24   25 1   
    39   24   26 1   
    40   24   29 1   
    41   27   40 1   
    42   27   41 1   
    43   27   44 1   
    44   29   42 1   
    45   29   43 1   
@<TRIPOS>SUBSTRUCTURE
     1 2TM         1 TEMP              0 ****  ****    0 ROOT
