@<TRIPOS>MOLECULE
2TN
   41    38     1     0     0
SMALL
bcc


@<TRIPOS>ATOM
      1 O1          5.1910   -1.4180    2.2230 o         1 2TN     -0.376000
      2 C11         6.0950   -0.6900    1.8560 c1        1 2TN      0.300000
      3 N2          7.4540   -1.0620    2.0960 n2        1 2TN     -0.428000
      4 C10         5.7760    0.6040    1.0830 c3        1 2TN     -0.143000
      5 C7          4.2880    0.7440    0.9340 c2        1 2TN     -0.119000
      6 C8          3.5780    1.5190    1.8260 c1        1 2TN     -0.087000
      7 C9          2.2140    1.7380    1.6300 c1        1 2TN     -0.152000
      8 C4          1.5750    1.1790    0.5450 c1        1 2TN      0.077000
      9 C5          2.2890    0.3980   -0.3550 c1        1 2TN     -0.201000
     10 C6          3.6420    0.1800   -0.1620 c2        1 2TN     -0.100000
     11 O2          0.2030    1.5060    0.2760 os        1 2TN     -0.217000
     12 C1         -0.6940    0.3990    0.4170 c3        1 2TN     -0.063000
     13 C2         -1.9870    0.6980   -0.3110 c3        1 2TN     -0.006000
     14 O3         -2.7330    1.6540    0.4210 oh        1 2TN     -0.328000
     15 C3         -2.7970   -0.5830   -0.4490 c3        1 2TN     -0.064000
     16 N1         -3.6180   -0.5090   -1.6340 n3        1 2TN     -0.298000
     17 C12        -4.8600   -1.1820   -1.4010 c3        1 2TN     -0.025000
     18 C14        -5.2210   -1.9920   -2.6110 c3        1 2TN     -0.227000
     19 C13        -5.9610   -0.1500   -1.1320 c3        1 2TN     -0.227000
     20 HN21        7.7880   -1.0490    2.9470 hn        1 2TN      0.224500
     21 HN22        7.9760   -1.3590    1.4040 hn        1 2TN      0.224500
     22 H101        6.1940    0.5670    0.1910 hc        1 2TN      0.122500
     23 H102        6.1260    1.3710    1.5750 hc        1 2TN      0.122500
     24 H8          4.0370    1.9210    2.6070 ha        1 2TN      0.144000
     25 H9          1.7110    2.2870    2.2620 ha        1 2TN      0.153000
     26 H5          1.8360    0.0030   -1.1230 ha        1 2TN      0.143000
     27 H6          4.1460   -0.3730   -0.7990 ha        1 2TN      0.137000
     28 H11        -0.2830   -0.4030    0.0350 h1        1 2TN      0.110500
     29 H12A       -0.8800    0.2490    1.3640 h1        1 2TN      0.110500
     30 H2         -1.7850    1.0530   -1.1990 h1        1 2TN      0.099000
     31 HO3        -2.7090    2.4390   -0.0050 ho        1 2TN      0.215000
     32 H31        -2.1820   -1.3560   -0.5210 h1        1 2TN      0.076000
     33 H32        -3.3710   -0.6940    0.3420 h1        1 2TN      0.076000
     34 HN1        -3.7800    0.3700   -1.8420 hn        1 2TN      0.168000
     35 H12        -4.7720   -1.7670   -0.6350 h1        1 2TN      0.089000
     36 H141       -5.0840   -1.4530   -3.4180 hc        1 2TN      0.078000
     37 H142       -6.1560   -2.2610   -2.5560 hc        1 2TN      0.078000
     38 H143       -4.6560   -2.7850   -2.6520 hc        1 2TN      0.078000
     39 H131       -5.7160    0.3940   -0.3570 hc        1 2TN      0.078000
     40 H132       -6.0670    0.4300   -1.9190 hc        1 2TN      0.078000
     41 H133       -6.8090   -0.6160   -0.9510 hc        1 2TN      0.078000
@<TRIPOS>BOND
     1    1    2 1   
     2    2    4 1   
     3    3   20 1   
     4    3   21 1   
     5    4    5 1   
     6    4   22 1   
     7    4   23 1   
     8    5    6 1   
     9    5   10 1   
    10    6   24 1   
    11    7    8 1   
    12    7   25 1   
    13    8   11 1   
    14    9   10 1   
    15    9   26 1   
    16   10   27 1   
    17   11   12 1   
    18   12   13 1   
    19   12   28 1   
    20   12   29 1   
    21   13   14 1   
    22   13   15 1   
    23   13   30 1   
    24   14   31 1   
    25   15   16 1   
    26   15   32 1   
    27   15   33 1   
    28   16   17 1   
    29   16   34 1   
    30   17   18 1   
    31   17   19 1   
    32   17   35 1   
    33   18   36 1   
    34   18   37 1   
    35   18   38 1   
    36   19   39 1   
    37   19   40 1   
    38   19   41 1   
@<TRIPOS>SUBSTRUCTURE
     1 2TN         1 TEMP              0 ****  ****    0 ROOT
