@<TRIPOS>MOLECULE
2TN
   43    43     1     0     0
SMALL
bcc


@<TRIPOS>ATOM
      1 O1          1.5710   -0.0080    0.6490 o         1 2TN     -0.371100
      2 C11         2.5820   -0.1200   -0.0160 c         1 2TN      0.544100
      3 N2          3.8600   -0.2350    0.8130 n4        1 2TN     -0.774400
      4 C10         2.7900   -0.1580   -1.5070 c3        1 2TN     -0.081100
      5 C7          1.4990   -0.1410   -2.2460 ca        1 2TN     -0.149300
      6 C8          0.8810   -1.3450   -2.6070 ca        1 2TN     -0.066500
      7 C9         -0.2950   -1.3390   -3.3530 ca        1 2TN     -0.148000
      8 C4         -0.8500   -0.1120   -3.7410 ca        1 2TN      0.144100
      9 C5         -0.2440    1.1030   -3.3850 ca        1 2TN     -0.148000
     10 C6          0.9280    1.0780   -2.6340 ca        1 2TN     -0.066500
     11 O2         -2.0520   -0.0220   -4.4310 os        1 2TN     -0.379900
     12 C1         -2.2590   -1.0120   -5.4440 c3        1 2TN      0.108400
     13 C2         -2.8190   -0.3300   -6.7010 c3        1 2TN      0.120100
     14 O3         -1.7060    0.1320   -7.4380 oh        1 2TN     -0.564800
     15 C3         -3.7050    0.9000   -6.4040 c3        1 2TN      0.066800
     16 N1         -4.7300    0.6560   -5.3590 n4        1 2TN     -0.762000
     17 C12        -5.7150    1.8010   -5.2210 c3        1 2TN      0.135500
     18 C14        -5.0920    2.9900   -4.5070 c3        1 2TN     -0.135100
     19 C13        -6.9640    1.3360   -4.4840 c3        1 2TN     -0.135100
     20 HN21        3.6370   -0.1740    1.8160 hn        1 2TN      0.471467
     21 HN22        4.3180   -1.1330    0.6310 hn        1 2TN      0.471467
     22 H101        3.4120    0.7360   -1.8000 hc        1 2TN      0.110700
     23 H102        3.3710   -1.0870   -1.7730 hc        1 2TN      0.110700
     24 H8          1.3230   -2.3100   -2.3110 ha        1 2TN      0.149500
     25 H9         -0.7770   -2.2890   -3.6290 ha        1 2TN      0.161500
     26 H5         -0.6900    2.0580   -3.7010 ha        1 2TN      0.161500
     27 H6          1.4100    2.0310   -2.3620 ha        1 2TN      0.149500
     28 H11        -3.0050   -1.7460   -5.0360 h1        1 2TN      0.082200
     29 H12A       -1.3060   -1.5400   -5.7160 h1        1 2TN      0.082200
     30 H2         -3.4050   -1.0950   -7.2840 h1        1 2TN      0.073700
     31 HO3        -1.9590    0.1730   -8.3710 ho        1 2TN      0.435000
     32 H31        -3.0360    1.7420   -6.0560 hx        1 2TN      0.117700
     33 H32        -4.2210    1.2180   -7.3540 hx        1 2TN      0.117700
     34 HN1        -5.2530   -0.1970   -5.5840 hn        1 2TN      0.453800
     35 H12        -5.9980    2.1020   -6.2760 hx        1 2TN      0.108700
     36 H141       -5.8530    3.8120   -4.4690 hc        1 2TN      0.080367
     37 H142       -4.8050    2.7340   -3.4580 hc        1 2TN      0.080367
     38 H143       -4.1950    3.3740   -5.0500 hc        1 2TN      0.080367
     39 H131       -7.4600    0.4810   -5.0050 hc        1 2TN      0.080367
     40 H132       -7.6910    2.1890   -4.4580 hc        1 2TN      0.080367
     41 H133       -6.7360    1.0440   -3.4300 hc        1 2TN      0.080367
     42 H23         4.5070    0.5200    0.5710 hn        1 2TN      0.471467
     43 H121       -4.2530    0.5130   -4.4570 hn        1 2TN      0.453800
@<TRIPOS>BOND
     1    1    2 2   
     2    2    3 1   
     3    2    4 1   
     4    3   20 1   
     5    3   21 1   
     6    3   42 1   
     7    4    5 1   
     8    4   22 1   
     9    4   23 1   
    10    5    6 ar  
    11    5   10 ar  
    12    6    7 ar  
    13    6   24 1   
    14    7    8 ar  
    15    7   25 1   
    16    8    9 ar  
    17    8   11 1   
    18    9   10 ar  
    19    9   26 1   
    20   10   27 1   
    21   11   12 1   
    22   12   13 1   
    23   12   28 1   
    24   12   29 1   
    25   13   14 1   
    26   13   15 1   
    27   13   30 1   
    28   14   31 1   
    29   15   16 1   
    30   15   32 1   
    31   15   33 1   
    32   16   17 1   
    33   16   34 1   
    34   16   43 1   
    35   17   18 1   
    36   17   19 1   
    37   17   35 1   
    38   18   36 1   
    39   18   37 1   
    40   18   38 1   
    41   19   39 1   
    42   19   40 1   
    43   19   41 1   
@<TRIPOS>SUBSTRUCTURE
     1 2TN         1 TEMP              0 ****  ****    0 ROOT
