@<TRIPOS>MOLECULE
2TN
   43    43     1     0     0
SMALL
bcc


@<TRIPOS>ATOM
      1 O1          1.5280   -0.1160    0.6680 o         1 2TN     -0.371100
      2 C11         2.5530   -0.1450    0.0150 c         1 2TN      0.544100
      3 N2          3.8230   -0.2500    0.8570 nz        1 2TN     -0.774400
      4 C10         2.7840   -0.0880   -1.4720 c3        1 2TN     -0.081100
      5 C7          1.5040   -0.0860   -2.2310 ca        1 2TN     -0.149300
      6 C8          0.9470   -1.2940   -2.6700 ca        1 2TN     -0.066500
      7 C9         -0.2180   -1.2970   -3.4330 ca        1 2TN     -0.148000
      8 C4         -0.8230   -0.0770   -3.7610 ca        1 2TN      0.144100
      9 C5         -0.2780    1.1420   -3.3270 ca        1 2TN     -0.148000
     10 C6          0.8830    1.1270   -2.5590 ca        1 2TN     -0.066500
     11 O2         -2.0180   -0.0010   -4.4650 os        1 2TN     -0.379900
     12 C1         -2.1650   -0.9410   -5.5350 c3        1 2TN      0.108400
     13 C2         -2.7380   -0.2130   -6.7610 c3        1 2TN      0.120100
     14 O3         -1.6370    0.3390   -7.4520 oh        1 2TN     -0.564800
     15 C3         -3.6830    0.9570   -6.4100 c3        1 2TN      0.066800
     16 N1         -4.7100    0.6080   -5.3960 ny        1 2TN     -0.762000
     17 C12        -5.7490    1.6970   -5.2110 c3        1 2TN      0.135500
     18 C14        -5.1910    2.8720   -4.4230 c3        1 2TN     -0.135100
     19 C13        -6.9850    1.1350   -4.5210 c3        1 2TN     -0.135100
     20 HN21        4.3250   -1.1140    0.6320 hn        1 2TN      0.471467
     21 HN22        4.4390    0.5470    0.6690 hn        1 2TN      0.471467
     22 H101        3.3680    0.8490   -1.7040 hc        1 2TN      0.110700
     23 H102        3.4100   -0.9730   -1.7810 hc        1 2TN      0.110700
     24 H8          1.4280   -2.2530   -2.4210 ha        1 2TN      0.149500
     25 H9         -0.6520   -2.2510   -3.7710 ha        1 2TN      0.161500
     26 H5         -0.7620    2.0920   -3.5960 ha        1 2TN      0.161500
     27 H6          1.3180    2.0830   -2.2260 ha        1 2TN      0.149500
     28 H11        -1.1850   -1.4090   -5.8200 h1        1 2TN      0.082200
     29 H12A       -2.8820   -1.7290   -5.1810 h1        1 2TN      0.082200
     30 H2         -3.2810   -0.9700   -7.3960 h1        1 2TN      0.073700
     31 HO3        -1.8790    0.4220   -8.3850 ho        1 2TN      0.435000
     32 H31        -3.0590    1.8070   -6.0050 hx        1 2TN      0.117700
     33 H32        -4.2010    1.3040   -7.3490 hx        1 2TN      0.117700
     34 HN1        -4.2400    0.4350   -4.4970 hn        1 2TN      0.453800
     35 H12        -6.0320    2.0430   -6.2520 hx        1 2TN      0.108700
     36 H141       -5.9900    3.6540   -4.3510 hc        1 2TN      0.080367
     37 H142       -4.9060    2.5700   -3.3850 hc        1 2TN      0.080367
     38 H143       -4.3060    3.3260   -4.9300 hc        1 2TN      0.080367
     39 H131       -7.4340    0.2890   -5.0960 hc        1 2TN      0.080367
     40 H132       -7.7510    1.9520   -4.4590 hc        1 2TN      0.080367
     41 H133       -6.7570    0.7950   -3.4820 hc        1 2TN      0.080367
     42 H23         3.5840   -0.2570    1.8580 hn        1 2TN      0.471467
     43 H121       -5.1900   -0.2540   -5.6780 hn        1 2TN      0.453800
@<TRIPOS>BOND
     1    1    2 2   
     2    2    3 1   
     3    2    4 1   
     4    3   20 1   
     5    3   21 1   
     6    3   42 1   
     7    4    5 1   
     8    4   22 1   
     9    4   23 1   
    10    5    6 ar  
    11    5   10 ar  
    12    6    7 ar  
    13    6   24 1   
    14    7    8 ar  
    15    7   25 1   
    16    8    9 ar  
    17    8   11 1   
    18    9   10 ar  
    19    9   26 1   
    20   10   27 1   
    21   11   12 1   
    22   12   13 1   
    23   12   28 1   
    24   12   29 1   
    25   13   14 1   
    26   13   15 1   
    27   13   30 1   
    28   14   31 1   
    29   15   16 1   
    30   15   32 1   
    31   15   33 1   
    32   16   17 1   
    33   16   34 1   
    34   16   43 1   
    35   17   18 1   
    36   17   19 1   
    37   17   35 1   
    38   18   36 1   
    39   18   37 1   
    40   18   38 1   
    41   19   39 1   
    42   19   40 1   
    43   19   41 1   
@<TRIPOS>SUBSTRUCTURE
     1 2TN         1 TEMP              0 ****  ****    0 ROOT
