@<TRIPOS>MOLECULE
2TN
   41    41     1     0     0
SMALL
bcc


@<TRIPOS>ATOM
      1 O1          2.1620    2.0110   10.8460 o         1 2TN     -0.619100
      2 C11         2.2140    1.0730   10.0220 c         1 2TN      0.655100
      3 N2          3.4140    0.4770    9.7270 n         1 2TN     -0.667000
      4 C10         0.9480    0.5290    9.3810 c3        1 2TN     -0.104100
      5 C7          1.1230    0.1070    7.9680 ca        1 2TN     -0.135300
      6 C8          0.8870    1.0080    6.9260 ca        1 2TN     -0.093000
      7 C9          1.0340    0.6180    5.5960 ca        1 2TN     -0.181000
      8 C4          1.4210   -0.6960    5.3060 ca        1 2TN      0.140100
      9 C5          1.6560   -1.6180    6.3460 ca        1 2TN     -0.181000
     10 C6          1.5060   -1.2080    7.6630 ca        1 2TN     -0.093000
     11 O2          1.6150   -1.1990    4.0370 os        1 2TN     -0.317900
     12 C1          1.2660   -0.3190    2.9620 c3        1 2TN      0.136400
     13 C2          1.4540   -1.0970    1.6570 c3        1 2TN      0.144100
     14 O3          0.4660   -2.1140    1.6400 oh        1 2TN     -0.588800
     15 C3          2.8650   -1.7010    1.5370 c3        1 2TN      0.131800
     16 N1          3.8760   -0.6970    1.2930 n3        1 2TN     -0.824200
     17 C12         5.2410   -1.2220    1.3180 c3        1 2TN      0.179500
     18 C14         5.7890   -1.3060    2.7440 c3        1 2TN     -0.095600
     19 C13         6.1960   -0.3750    0.4760 c3        1 2TN     -0.095600
     20 HN21        3.4790   -0.1690    8.9810 hn        1 2TN      0.310500
     21 HN22        4.2490    0.8600   10.0970 hn        1 2TN      0.310500
     22 H101        0.1660    1.3330    9.4540 hc        1 2TN      0.081200
     23 H102        0.6010   -0.3370   10.0080 hc        1 2TN      0.081200
     24 H8          0.5800    2.0400    7.1560 ha        1 2TN      0.137000
     25 H9          0.8450    1.3450    4.7950 ha        1 2TN      0.146000
     26 H5          1.9500   -2.6470    6.0980 ha        1 2TN      0.146000
     27 H6          1.6800   -1.9270    8.4790 ha        1 2TN      0.137000
     28 H11         0.1950   -0.0040    3.0670 h1        1 2TN      0.057200
     29 H12A        1.9490    0.5700    2.9690 h1        1 2TN      0.057200
     30 H2          1.2530   -0.3850    0.8040 h1        1 2TN      0.038700
     31 HO3         0.6770   -2.7100    0.9120 ho        1 2TN      0.403000
     32 H31         3.1070   -2.2270    2.5050 h1        1 2TN      0.044200
     33 H32         2.8380   -2.4900    0.7250 h1        1 2TN      0.044200
     34 HN1         3.7020   -0.2290    0.4230 hn        1 2TN      0.356800
     35 H12         5.2610   -2.2740    0.8890 h1        1 2TN      0.018700
     36 H141        6.8160   -1.7420    2.7130 hc        1 2TN      0.040200
     37 H142        5.8420   -0.2920    3.2080 hc        1 2TN      0.040200
     38 H143        5.1440   -1.9550    3.3830 hc        1 2TN      0.040200
     39 H131        5.8750   -0.3510   -0.5930 hc        1 2TN      0.040200
     40 H132        7.2190   -0.8190    0.5280 hc        1 2TN      0.040200
     41 H133        6.2430    0.6720    0.8590 hc        1 2TN      0.040200
@<TRIPOS>BOND
     1    1    2 2   
     2    2    3 1   
     3    2    4 1   
     4    3   20 1   
     5    3   21 1   
     6    4    5 1   
     7    4   22 1   
     8    4   23 1   
     9    5    6 ar  
    10    5   10 ar  
    11    6    7 ar  
    12    6   24 1   
    13    7    8 ar  
    14    7   25 1   
    15    8    9 ar  
    16    8   11 1   
    17    9   10 ar  
    18    9   26 1   
    19   10   27 1   
    20   11   12 1   
    21   12   13 1   
    22   12   28 1   
    23   12   29 1   
    24   13   14 1   
    25   13   15 1   
    26   13   30 1   
    27   14   31 1   
    28   15   16 1   
    29   15   32 1   
    30   15   33 1   
    31   16   17 1   
    32   16   34 1   
    33   17   18 1   
    34   17   19 1   
    35   17   35 1   
    36   18   36 1   
    37   18   37 1   
    38   18   38 1   
    39   19   39 1   
    40   19   40 1   
    41   19   41 1   
@<TRIPOS>SUBSTRUCTURE
     1 2TN         1 TEMP              0 ****  ****    0 ROOT
