@<TRIPOS>MOLECULE
2TN
   43    43     1     0     0
SMALL
bcc


@<TRIPOS>ATOM
      1 O1          1.5290   -0.0390    0.6770 o         1 2TN     -0.371100
      2 C11         2.5530   -0.0800    0.0240 c         1 2TN      0.544100
      3 N2          3.8230   -0.1710    0.8680 n4        1 2TN     -0.774400
      4 C10         2.7840   -0.0480   -1.4640 c3        1 2TN     -0.081100
      5 C7          1.5040   -0.0590   -2.2220 ca        1 2TN     -0.149300
      6 C8          0.9470   -1.2740   -2.6400 ca        1 2TN     -0.066500
      7 C9         -0.2180   -1.2910   -3.4040 ca        1 2TN     -0.148000
      8 C4         -0.8230   -0.0770   -3.7530 ca        1 2TN      0.144100
      9 C5         -0.2780    1.1490   -3.3380 ca        1 2TN     -0.148000
     10 C6          0.8830    1.1480   -2.5710 ca        1 2TN     -0.066500
     11 O2         -2.0180   -0.0130   -4.4570 os        1 2TN     -0.379900
     12 C1         -2.1650   -0.9710   -5.5110 c3        1 2TN      0.108400
     13 C2         -2.7380   -0.2660   -6.7490 c3        1 2TN      0.120100
     14 O3         -1.6370    0.2750   -7.4500 oh        1 2TN     -0.564800
     15 C3         -3.6830    0.9110   -6.4180 c3        1 2TN      0.066800
     16 N1         -4.7100    0.5800   -5.3990 n4        1 2TN     -0.762000
     17 C12        -5.7490    1.6720   -5.2330 c3        1 2TN      0.135500
     18 C14        -5.1910    2.8600   -4.4650 c3        1 2TN     -0.135100
     19 C13        -6.9850    1.1230   -4.5340 c3        1 2TN     -0.135100
     20 HN21        4.3240   -1.0390    0.6580 hn        1 2TN      0.471467
     21 HN22        3.5840   -0.1600    1.8690 hn        1 2TN      0.471467
     22 H101        3.3680    0.8850   -1.7110 hc        1 2TN      0.110700
     23 H102        3.4110   -0.9370   -1.7570 hc        1 2TN      0.110700
     24 H8          1.4290   -2.2290   -2.3750 ha        1 2TN      0.149500
     25 H9         -0.6520   -2.2500   -3.7250 ha        1 2TN      0.161500
     26 H5         -0.7620    2.0950   -3.6240 ha        1 2TN      0.161500
     27 H6          1.3170    2.1090   -2.2540 ha        1 2TN      0.149500
     28 H11        -1.1850   -1.4440   -5.7880 h1        1 2TN      0.082200
     29 H12A       -2.8820   -1.7530   -5.1440 h1        1 2TN      0.082200
     30 H2         -3.2810   -1.0320   -7.3710 h1        1 2TN      0.073700
     31 HO3        -1.8790    0.3410   -8.3840 ho        1 2TN      0.435000
     32 H31        -3.0580    1.7680   -6.0280 hx        1 2TN      0.117700
     33 H32        -4.2000    1.2420   -7.3630 hx        1 2TN      0.117700
     34 HN1        -5.1900   -0.2870   -5.6660 hn        1 2TN      0.453800
     35 H12        -6.0310    2.0010   -6.2800 hx        1 2TN      0.108700
     36 H141       -4.9060    2.5770   -3.4220 hc        1 2TN      0.080367
     37 H142       -5.9890    3.6440   -4.4070 hc        1 2TN      0.080367
     38 H143       -4.3050    3.3060   -4.9790 hc        1 2TN      0.080367
     39 H131       -7.7500    1.9400   -4.4860 hc        1 2TN      0.080367
     40 H132       -7.4340    0.2670   -5.0950 hc        1 2TN      0.080367
     41 H133       -6.7580    0.8010   -3.4890 hc        1 2TN      0.080367
     42 H23         4.4390    0.6220    0.6660 hn        1 2TN      0.471467
     43 H121       -4.2400    0.4230   -4.4960 hn        1 2TN      0.453800
@<TRIPOS>BOND
     1    1    2 2   
     2    2    3 1   
     3    2    4 1   
     4    3   20 1   
     5    3   21 1   
     6    3   42 1   
     7    4    5 1   
     8    4   22 1   
     9    4   23 1   
    10    5    6 ar  
    11    5   10 ar  
    12    6    7 ar  
    13    6   24 1   
    14    7    8 ar  
    15    7   25 1   
    16    8    9 ar  
    17    8   11 1   
    18    9   10 ar  
    19    9   26 1   
    20   10   27 1   
    21   11   12 1   
    22   12   13 1   
    23   12   28 1   
    24   12   29 1   
    25   13   14 1   
    26   13   15 1   
    27   13   30 1   
    28   14   31 1   
    29   15   16 1   
    30   15   32 1   
    31   15   33 1   
    32   16   17 1   
    33   16   34 1   
    34   16   43 1   
    35   17   18 1   
    36   17   19 1   
    37   17   35 1   
    38   18   36 1   
    39   18   37 1   
    40   18   38 1   
    41   19   39 1   
    42   19   40 1   
    43   19   41 1   
@<TRIPOS>SUBSTRUCTURE
     1 2TN         1 TEMP              0 ****  ****    0 ROOT
