@<TRIPOS>MOLECULE
2TO
   59    62     1     0     0
SMALL
bcc


@<TRIPOS>ATOM
      1 C17        -0.0930   -0.3160   -0.0360 ca        1 2TO      0.032000
      2 C18         1.2960   -0.5230   -0.1140 ca        1 2TO     -0.218300
      3 C19         2.0080   -0.5170    1.0980 ca        1 2TO      0.478200
      4 N6          3.4730   -0.7390    1.0860 n4        1 2TO     -0.824300
      5 N5          1.4440   -0.3130    2.3250 nb        1 2TO     -0.664000
      6 C20         0.1200   -0.1170    2.3520 ca        1 2TO      0.525200
      7 C16        -0.7000   -0.1220    1.1990 ca        1 2TO     -0.383800
      8 S1         -2.4230    0.1880    1.3380 sy        1 2TO      1.497200
      9 O2         -2.5510    0.9070    2.5350 o         1 2TO     -0.620300
     10 O3         -2.7750    0.7870    0.1190 o         1 2TO     -0.620300
     11 N3         -3.0380   -1.2850    1.4660 n3        1 2TO     -0.822500
     12 C10        -3.4750   -2.0710    0.3340 c3        1 2TO      0.213800
     13 C11        -2.7840   -3.4500    0.2580 c3        1 2TO      0.153800
     14 C9         -3.1340   -2.0040    2.7170 c3        1 2TO      0.213800
     15 C8         -2.4270   -3.3770    2.6710 c3        1 2TO      0.153800
     16 N2         -2.8520   -4.1740    1.5240 nh        1 2TO     -0.710300
     17 C6         -2.1890   -5.4570    1.4510 ca        1 2TO      0.598200
     18 N1         -0.8210   -5.5140    1.3910 nb        1 2TO     -0.710000
     19 C3         -0.2340   -6.7100    1.3190 ca        1 2TO      0.433200
     20 C1         -0.9460   -7.9320    1.2920 ca        1 2TO     -0.235600
     21 C4         -0.2170   -9.2330    1.2020 c3        1 2TO      0.163100
     22 C21         0.6400   -9.3220   -0.1390 c3        1 2TO      0.602900
     23 F2          1.1170  -10.5880   -0.3540 f         1 2TO     -0.217133
     24 F3         -0.0730   -9.0140   -1.2630 f         1 2TO     -0.217133
     25 F1          1.7370   -8.5050   -0.1700 f         1 2TO     -0.217133
     26 C22         0.7480   -9.4440    2.4520 c3        1 2TO      0.602900
     27 F5          1.2340  -10.7250    2.5070 f         1 2TO     -0.217133
     28 F6          1.8490   -8.6320    2.4640 f         1 2TO     -0.217133
     29 F4          0.1330   -9.2430    3.6550 f         1 2TO     -0.217133
     30 O1         -1.1510  -10.2850    1.1880 oh        1 2TO     -0.549800
     31 C2         -2.3380   -7.8790    1.3520 ca        1 2TO     -0.021000
     32 C5         -2.9900   -6.6360    1.4370 cp        1 2TO     -0.101300
     33 C7         -4.4450   -6.6060    1.4960 cp        1 2TO     -0.170300
     34 C15        -5.2140   -7.2920    0.5420 ca        1 2TO     -0.080000
     35 C14        -6.6040   -7.2510    0.6340 ca        1 2TO     -0.244300
     36 C13        -7.1880   -6.5240    1.6890 ca        1 2TO      0.411200
     37 N4         -6.4700   -5.8670    2.6200 nb        1 2TO     -0.664000
     38 C12        -5.1290   -5.9150    2.5220 ca        1 2TO      0.435200
     39 H1         -0.6920   -0.2880   -0.9670 ha        1 2TO      0.194000
     40 H2          1.7770   -0.6760   -1.0910 ha        1 2TO      0.174000
     41 H3          3.6920   -1.6160    1.5770 hn        1 2TO      0.474467
     42 H4          3.8000   -0.7950    0.1170 hn        1 2TO      0.474467
     43 H5         -0.3130    0.0770    3.3600 h4        1 2TO      0.086100
     44 H6         -3.2600   -1.5110   -0.6210 h1        1 2TO      0.078200
     45 H7         -4.5910   -2.2240    0.4100 h1        1 2TO      0.078200
     46 H8         -1.7230   -3.3070   -0.0950 h1        1 2TO      0.052450
     47 H9         -3.3290   -4.0650   -0.5130 h1        1 2TO      0.052450
     48 H10        -4.2250   -2.1590    2.9630 h1        1 2TO      0.078200
     49 H11        -2.6710   -1.3900    3.5410 h1        1 2TO      0.078200
     50 H12        -1.3120   -3.2100    2.6950 h1        1 2TO      0.052450
     51 H13        -2.7140   -3.9440    3.6010 h1        1 2TO      0.052450
     52 H14         0.8740   -6.7060    1.2770 h4        1 2TO      0.039100
     53 H15        -0.6580  -11.1230    1.1420 ho        1 2TO      0.450000
     54 H16        -2.9350   -8.8090    1.3370 ha        1 2TO      0.181000
     55 H17        -4.7240   -7.8510   -0.2690 ha        1 2TO      0.143000
     56 H18        -7.2360   -7.7750   -0.0960 ha        1 2TO      0.155000
     57 H19        -8.2870   -6.4650    1.7990 h4        1 2TO      0.034100
     58 H20        -4.5720   -5.3740    3.3080 h4        1 2TO      0.023100
     59 H63         3.9490    0.0370    1.5670 hn        1 2TO      0.474467
@<TRIPOS>BOND
     1    1    2 ar  
     2    1    7 ar  
     3    1   39 1   
     4    2    3 ar  
     5    2   40 1   
     6    3    4 1   
     7    3    5 ar  
     8    4   41 1   
     9    4   42 1   
    10    4   59 1   
    11    5    6 ar  
    12    6    7 ar  
    13    6   43 1   
    14    7    8 1   
    15    8    9 2   
    16    8   10 2   
    17    8   11 1   
    18   11   12 1   
    19   11   14 1   
    20   12   13 1   
    21   12   44 1   
    22   12   45 1   
    23   13   16 1   
    24   13   46 1   
    25   13   47 1   
    26   14   15 1   
    27   14   48 1   
    28   14   49 1   
    29   15   16 1   
    30   15   50 1   
    31   15   51 1   
    32   16   17 1   
    33   17   18 ar  
    34   17   32 ar  
    35   18   19 ar  
    36   19   20 ar  
    37   19   52 1   
    38   20   21 1   
    39   20   31 ar  
    40   21   22 1   
    41   21   26 1   
    42   21   30 1   
    43   22   23 1   
    44   22   24 1   
    45   22   25 1   
    46   26   27 1   
    47   26   28 1   
    48   26   29 1   
    49   30   53 1   
    50   31   32 ar  
    51   31   54 1   
    52   32   33 1   
    53   33   34 ar  
    54   33   38 ar  
    55   34   35 ar  
    56   34   55 1   
    57   35   36 ar  
    58   35   56 1   
    59   36   37 ar  
    60   36   57 1   
    61   37   38 ar  
    62   38   58 1   
@<TRIPOS>SUBSTRUCTURE
     1 2TO         1 TEMP              0 ****  ****    0 ROOT
