@<TRIPOS>MOLECULE
2TO
   58    61     1     0     0
SMALL
bcc


@<TRIPOS>ATOM
      1 C17        -0.6790   -0.0220   -0.2380 ca        1 2TO      0.065000
      2 C18         0.6130   -0.0190   -0.7240 ca        1 2TO     -0.353300
      3 C19         1.7030    0.0700    0.2100 ca        1 2TO      0.731200
      4 N6          2.9970    0.0350   -0.2420 nh        1 2TO     -0.960500
      5 N5          1.4720    0.1720    1.5710 nb        1 2TO     -0.754000
      6 C20         0.2060    0.1660    1.9810 ca        1 2TO      0.563200
      7 C16        -0.9290    0.0600    1.1430 ca        1 2TO     -0.593800
      8 S1         -2.4770    0.0980    1.7580 sy        1 2TO      1.530200
      9 O2         -2.4460    0.7900    2.9890 o         1 2TO     -0.655800
     10 O3         -3.3450    0.5900    0.7560 o         1 2TO     -0.655800
     11 N3         -2.8320   -1.4720    2.0400 n3        1 2TO     -0.812500
     12 C10        -3.5170   -2.3070    1.0900 c3        1 2TO      0.226300
     13 C11        -2.8060   -3.6540    0.8280 c3        1 2TO      0.162800
     14 C9         -2.4580   -2.1550    3.2500 c3        1 2TO      0.226300
     15 C8         -1.7280   -3.4960    2.9980 c3        1 2TO      0.162800
     16 N2         -2.4670   -4.3450    2.0700 nh        1 2TO     -0.726300
     17 C6         -1.9540   -5.6620    1.8750 ca        1 2TO      0.652200
     18 N1         -0.6470   -5.9410    2.1930 nb        1 2TO     -0.704000
     19 C3         -0.1980   -7.1880    2.0460 ca        1 2TO      0.458200
     20 C1         -0.9850   -8.2560    1.5600 ca        1 2TO     -0.277600
     21 C4         -0.4080   -9.6210    1.3970 c3        1 2TO      0.176100
     22 C21         0.8040   -9.6210    0.3620 c3        1 2TO      0.600400
     23 F2          1.1810  -10.8970    0.0230 f         1 2TO     -0.219633
     24 F3          0.5060   -9.0180   -0.8280 f         1 2TO     -0.219633
     25 F1          1.9430   -9.0110    0.8080 f         1 2TO     -0.219633
     26 C22         0.1000  -10.2110    2.7880 c3        1 2TO      0.600400
     27 F5          0.4090  -11.5450    2.6890 f         1 2TO     -0.219633
     28 F6          1.2230   -9.6130    3.2890 f         1 2TO     -0.219633
     29 F4         -0.8320  -10.1400    3.7840 f         1 2TO     -0.219633
     30 O1         -1.3970  -10.4890    0.8960 oh        1 2TO     -0.552800
     31 C2         -2.3190   -7.9870    1.2440 ca        1 2TO     -0.008000
     32 C5         -2.8330   -6.6940    1.4060 cp        1 2TO     -0.164300
     33 C7         -4.2430   -6.4690    1.1160 cp        1 2TO     -0.159300
     34 C15        -4.7850   -6.8110   -0.1330 ca        1 2TO     -0.089000
     35 C14        -6.1470   -6.6180   -0.3580 ca        1 2TO     -0.250300
     36 C13        -6.9330   -6.0920    0.6840 ca        1 2TO      0.401200
     37 N4         -6.4360   -5.7620    1.8920 nb        1 2TO     -0.664000
     38 C12        -5.1200   -5.9490    2.0980 ca        1 2TO      0.429200
     39 H1         -1.5340   -0.0720   -0.9370 ha        1 2TO      0.154000
     40 H2          0.8080   -0.0790   -1.8020 ha        1 2TO      0.147000
     41 H3          3.7560    0.1540    0.3820 hn        1 2TO      0.444300
     42 H4          3.1630    0.0610   -1.2160 hn        1 2TO      0.444300
     43 H5          0.0680    0.2730    3.0790 h4        1 2TO      0.042100
     44 H6         -3.6040   -1.7620    0.1060 h1        1 2TO      0.063950
     45 H7         -4.5590   -2.5180    1.4680 h1        1 2TO      0.063950
     46 H8         -3.5090   -4.3060    0.2360 h1        1 2TO      0.055200
     47 H9         -1.8850   -3.4690    0.2040 h1        1 2TO      0.055200
     48 H10        -3.3840   -2.3550    3.8640 h1        1 2TO      0.063950
     49 H11        -1.7720   -1.4940    3.8540 h1        1 2TO      0.063950
     50 H12        -0.6850   -3.2780    2.6310 h1        1 2TO      0.055200
     51 H13        -1.6500   -4.0360    3.9820 h1        1 2TO      0.055200
     52 H14         0.8650   -7.3490    2.3220 h4        1 2TO      0.043100
     53 H15        -1.0000  -11.3730    0.8110 ho        1 2TO      0.442000
     54 H16        -2.9770   -8.7930    0.8760 ha        1 2TO      0.169000
     55 H17        -4.1400   -7.2260   -0.9210 ha        1 2TO      0.142000
     56 H18        -6.6020   -6.8720   -1.3240 ha        1 2TO      0.147000
     57 H19        -8.0170   -5.9260    0.5490 h4        1 2TO      0.026100
     58 H20        -4.7410   -5.6670    3.0970 h4        1 2TO      0.038100
@<TRIPOS>BOND
     1    1    2 ar  
     2    1    7 ar  
     3    1   39 1   
     4    2    3 ar  
     5    2   40 1   
     6    3    4 1   
     7    3    5 ar  
     8    4   41 1   
     9    4   42 1   
    10    5    6 ar  
    11    6    7 ar  
    12    6   43 1   
    13    7    8 1   
    14    8    9 2   
    15    8   10 2   
    16    8   11 1   
    17   11   12 1   
    18   11   14 1   
    19   12   13 1   
    20   12   44 1   
    21   12   45 1   
    22   13   16 1   
    23   13   46 1   
    24   13   47 1   
    25   14   15 1   
    26   14   48 1   
    27   14   49 1   
    28   15   16 1   
    29   15   50 1   
    30   15   51 1   
    31   16   17 1   
    32   17   18 ar  
    33   17   32 ar  
    34   18   19 ar  
    35   19   20 ar  
    36   19   52 1   
    37   20   21 1   
    38   20   31 ar  
    39   21   22 1   
    40   21   26 1   
    41   21   30 1   
    42   22   23 1   
    43   22   24 1   
    44   22   25 1   
    45   26   27 1   
    46   26   28 1   
    47   26   29 1   
    48   30   53 1   
    49   31   32 ar  
    50   31   54 1   
    51   32   33 1   
    52   33   34 ar  
    53   33   38 ar  
    54   34   35 ar  
    55   34   55 1   
    56   35   36 ar  
    57   35   56 1   
    58   36   37 ar  
    59   36   57 1   
    60   37   38 ar  
    61   38   58 1   
@<TRIPOS>SUBSTRUCTURE
     1 2TO         1 TEMP              0 ****  ****    0 ROOT
