@<TRIPOS>MOLECULE
2TO
   58    61     1     0     0
SMALL
bcc


@<TRIPOS>ATOM
      1 C17        -0.6700   -0.0060   -0.2030 ca        1 2TO      0.065000
      2 C18         0.6260    0.0010   -0.6780 ca        1 2TO     -0.353300
      3 C19         1.7090    0.0780    0.2640 ca        1 2TO      0.731200
      4 N6          3.0070    0.0460   -0.1780 nv        1 2TO     -0.960500
      5 N5          1.4680    0.1660    1.6250 nb        1 2TO     -0.754000
      6 C20         0.1990    0.1570    2.0250 ca        1 2TO      0.563200
      7 C16        -0.9300    0.0620    1.1780 ca        1 2TO     -0.593800
      8 S1         -2.4820    0.0940    1.7810 sy        1 2TO      1.530200
      9 O2         -2.4610    0.7770    3.0180 o         1 2TO     -0.655800
     10 O3         -3.3420    0.5950    0.7770 o         1 2TO     -0.655800
     11 N3         -2.8400   -1.4770    2.0470 n3        1 2TO     -0.812500
     12 C10        -3.5100   -2.3060    1.0810 c3        1 2TO      0.226800
     13 C11        -2.7950   -3.6520    0.8220 c3        1 2TO      0.162800
     14 C9         -2.4850   -2.1680    3.2580 c3        1 2TO      0.226800
     15 C8         -1.7520   -3.5070    3.0100 c3        1 2TO      0.162800
     16 N2         -2.4760   -4.3500    2.0640 nh        1 2TO     -0.726300
     17 C6         -1.9610   -5.6670    1.8700 ca        1 2TO      0.652200
     18 N1         -0.6590   -5.9480    2.2080 nb        1 2TO     -0.704000
     19 C3         -0.2080   -7.1950    2.0610 ca        1 2TO      0.458200
     20 C1         -0.9880   -8.2590    1.5560 ca        1 2TO     -0.277600
     21 C4         -0.4100   -9.6240    1.3950 c3        1 2TO      0.176100
     22 C21         0.8200   -9.6200    0.3820 c3        1 2TO      0.600400
     23 F2          1.2010  -10.8930    0.0410 f         1 2TO     -0.219633
     24 F3          0.5430   -9.0090   -0.8100 f         1 2TO     -0.219633
     25 F1          1.9510   -9.0140    0.8510 f         1 2TO     -0.219633
     26 C22         0.0740  -10.2220    2.7910 c3        1 2TO      0.600400
     27 F5          0.3830  -11.5560    2.6900 f         1 2TO     -0.219633
     28 F6          1.1880   -9.6280    3.3150 f         1 2TO     -0.219633
     29 F4         -0.8750  -10.1570    3.7720 f         1 2TO     -0.219633
     30 O1         -1.3910  -10.4890    0.8730 oh        1 2TO     -0.552800
     31 C2         -2.3160   -7.9870    1.2200 ca        1 2TO     -0.008000
     32 C5         -2.8320   -6.6950    1.3810 cp        1 2TO     -0.164300
     33 C7         -4.2380   -6.4670    1.0680 cp        1 2TO     -0.159300
     34 C15        -4.7580   -6.8010   -0.1910 ca        1 2TO     -0.089000
     35 C14        -6.1170   -6.6060   -0.4380 ca        1 2TO     -0.250300
     36 C13        -6.9190   -6.0850    0.5940 ca        1 2TO      0.401200
     37 N4         -6.4420   -5.7630    1.8120 nb        1 2TO     -0.664000
     38 C12        -5.1300   -5.9520    2.0380 ca        1 2TO      0.429200
     39 H1         -1.5190   -0.0480   -0.9080 ha        1 2TO      0.154000
     40 H2          0.8300   -0.0480   -1.7560 ha        1 2TO      0.147000
     41 H3          3.7610    0.1580    0.4530 hn        1 2TO      0.444300
     42 H4          3.1800    0.0840   -1.1510 hn        1 2TO      0.444300
     43 H5          0.0530    0.2520    3.1230 h4        1 2TO      0.042100
     44 H6         -3.5810   -1.7550    0.1000 h1        1 2TO      0.063950
     45 H7         -4.5580   -2.5200    1.4410 h1        1 2TO      0.063950
     46 H8         -3.4880   -4.2990    0.2140 h1        1 2TO      0.055200
     47 H9         -1.8630   -3.4630    0.2140 h1        1 2TO      0.055200
     48 H10        -1.8090   -1.5110    3.8770 h1        1 2TO      0.063950
     49 H11        -3.4200   -2.3710    3.8560 h1        1 2TO      0.063950
     50 H12        -0.7030   -3.2870    2.6600 h1        1 2TO      0.055200
     51 H13        -1.6890   -4.0540    3.9910 h1        1 2TO      0.055200
     52 H14         0.8490   -7.3580    2.3550 h4        1 2TO      0.043100
     53 H15        -0.9930  -11.3720    0.7890 ho        1 2TO      0.442000
     54 H16        -2.9690   -8.7910    0.8370 ha        1 2TO      0.169000
     55 H17        -4.1010   -7.2120   -0.9710 ha        1 2TO      0.142000
     56 H18        -6.5560   -6.8540   -1.4130 ha        1 2TO      0.147000
     57 H19        -8.0000   -5.9170    0.4420 h4        1 2TO      0.026100
     58 H20        -4.7670   -5.6760    3.0460 h4        1 2TO      0.038100
@<TRIPOS>BOND
     1    1    2 ar  
     2    1    7 ar  
     3    1   39 1   
     4    2    3 ar  
     5    2   40 1   
     6    3    4 1   
     7    3    5 ar  
     8    4   41 1   
     9    4   42 1   
    10    5    6 ar  
    11    6    7 ar  
    12    6   43 1   
    13    7    8 1   
    14    8    9 2   
    15    8   10 2   
    16    8   11 1   
    17   11   12 1   
    18   11   14 1   
    19   12   13 1   
    20   12   44 1   
    21   12   45 1   
    22   13   16 1   
    23   13   46 1   
    24   13   47 1   
    25   14   15 1   
    26   14   48 1   
    27   14   49 1   
    28   15   16 1   
    29   15   50 1   
    30   15   51 1   
    31   16   17 1   
    32   17   18 ar  
    33   17   32 ar  
    34   18   19 ar  
    35   19   20 ar  
    36   19   52 1   
    37   20   21 1   
    38   20   31 ar  
    39   21   22 1   
    40   21   26 1   
    41   21   30 1   
    42   22   23 1   
    43   22   24 1   
    44   22   25 1   
    45   26   27 1   
    46   26   28 1   
    47   26   29 1   
    48   30   53 1   
    49   31   32 ar  
    50   31   54 1   
    51   32   33 1   
    52   33   34 ar  
    53   33   38 ar  
    54   34   35 ar  
    55   34   55 1   
    56   35   36 ar  
    57   35   56 1   
    58   36   37 ar  
    59   36   57 1   
    60   37   38 ar  
    61   38   58 1   
@<TRIPOS>SUBSTRUCTURE
     1 2TO         1 TEMP              0 ****  ****    0 ROOT
