@<TRIPOS>MOLECULE
2TQ
   19    20     1     0     0
SMALL
bcc


@<TRIPOS>ATOM
      1 OXT         0.6200    1.6540   -0.0290 o         1 2TQ     -0.825800
      2 C           1.0380    0.4670    0.0110 c         1 2TQ      0.935600
      3 O           0.8810   -0.3360    0.9670 o         1 2TQ     -0.825800
      4 CA          1.8980   -0.0630   -1.1960 c3        1 2TQ     -0.083300
      5 CB          2.9890    0.9790   -1.5490 c3        1 2TQ     -0.088400
      6 CG          2.6400    1.5600   -2.9210 c3        1 2TQ     -0.080400
      7 CD          1.4150    0.7880   -3.4040 cy        1 2TQ      0.025700
      8 N           1.0950   -0.2850   -2.3960 n         1 2TQ     -0.324800
      9 CAH         1.4400   -1.3170   -3.3330 c         1 2TQ      0.657500
     10 OAB         1.4880   -2.5420   -3.2820 o         1 2TQ     -0.595500
     11 CAF         1.6520   -0.3080   -4.4780 cy        1 2TQ     -0.218400
     12 H2          2.3630   -1.0340   -0.8700 h1        1 2TQ      0.060700
     13 H3          2.9900    1.7840   -0.7730 hc        1 2TQ      0.044200
     14 H4          3.9970    0.4990   -1.5690 hc        1 2TQ      0.044200
     15 H5          3.4910    1.4500   -3.6380 hc        1 2TQ      0.034200
     16 H6          2.3970    2.6470   -2.8340 hc        1 2TQ      0.034200
     17 H7          0.5370    1.4480   -3.5910 h1        1 2TQ      0.084700
     18 H8          2.6730   -0.3330   -4.9110 hc        1 2TQ      0.060200
     19 H9          0.8900   -0.3510   -5.2830 hc        1 2TQ      0.060200
@<TRIPOS>BOND
     1    1    2 1   
     2    2    3 1   
     3    2    4 1   
     4    4    5 1   
     5    4    8 1   
     6    4   12 1   
     7    5    6 1   
     8    5   13 1   
     9    5   14 1   
    10    6    7 1   
    11    6   15 1   
    12    6   16 1   
    13    7    8 1   
    14    7   11 1   
    15    7   17 1   
    16    8    9 1   
    17    9   10 2   
    18    9   11 1   
    19   11   18 1   
    20   11   19 1   
@<TRIPOS>SUBSTRUCTURE
     1 2TQ         1 TEMP              0 ****  ****    0 ROOT
