@<TRIPOS>MOLECULE
2TQ
   19    20     1     0     0
SMALL
bcc


@<TRIPOS>ATOM
      1 OXT         0.5980    1.6650   -0.0490 o         1 2TQ     -0.825800
      2 C           1.0650    0.4980    0.0170 c         1 2TQ      0.935600
      3 O           0.9540   -0.2840    0.9960 o         1 2TQ     -0.825800
      4 CA          1.9320   -0.0290   -1.1870 c3        1 2TQ     -0.083300
      5 CB          2.9760    1.0450   -1.5810 c3        1 2TQ     -0.088400
      6 CG          2.5890    1.5760   -2.9630 c3        1 2TQ     -0.080400
      7 CD          1.3890    0.7450   -3.4100 cy        1 2TQ      0.025700
      8 N           1.1250   -0.3140   -2.3700 n         1 2TQ     -0.324800
      9 CAH         1.5000   -1.3560   -3.2860 c         1 2TQ      0.657500
     10 OAB         1.5970   -2.5770   -3.2040 o         1 2TQ     -0.595500
     11 CAF         1.6570   -0.3690   -4.4580 cy        1 2TQ     -0.218400
     12 H2          2.4390   -0.9720   -0.8420 h1        1 2TQ      0.060700
     13 H3          4.0030    0.6050   -1.6010 hc        1 2TQ      0.044200
     14 H4          2.9550    1.8690   -0.8250 hc        1 2TQ      0.044200
     15 H5          2.3030    2.6550   -2.9000 hc        1 2TQ      0.034200
     16 H6          3.4340    1.4820   -3.6870 hc        1 2TQ      0.034200
     17 H7          0.4840    1.3630   -3.6020 h1        1 2TQ      0.084700
     18 H8          2.6740   -0.3650   -4.9030 hc        1 2TQ      0.060200
     19 H9          0.8890   -0.4640   -5.2520 hc        1 2TQ      0.060200
@<TRIPOS>BOND
     1    1    2 1   
     2    2    3 1   
     3    2    4 1   
     4    4    5 1   
     5    4    8 1   
     6    4   12 1   
     7    5    6 1   
     8    5   13 1   
     9    5   14 1   
    10    6    7 1   
    11    6   15 1   
    12    6   16 1   
    13    7    8 1   
    14    7   11 1   
    15    7   17 1   
    16    8    9 1   
    17    9   10 2   
    18    9   11 1   
    19   11   18 1   
    20   11   19 1   
@<TRIPOS>SUBSTRUCTURE
     1 2TQ         1 TEMP              0 ****  ****    0 ROOT
