@<TRIPOS>MOLECULE
2TQ
   19    20     1     0     0
SMALL
bcc


@<TRIPOS>ATOM
      1 OXT         0.5720    1.6880   -0.0770 o         1 2TQ     -0.825800
      2 C           1.0110    0.5100   -0.0040 c         1 2TQ      0.935600
      3 O           0.8580   -0.2730    0.9700 o         1 2TQ     -0.825800
      4 CA          1.8950   -0.0330   -1.1880 c3        1 2TQ     -0.083300
      5 CB          2.9710    1.0200   -1.5530 c3        1 2TQ     -0.088400
      6 CG          2.6290    1.5630   -2.9430 c3        1 2TQ     -0.080400
      7 CD          1.4230    0.7590   -3.4210 cy        1 2TQ      0.025700
      8 N           1.1110   -0.2970   -2.3920 n         1 2TQ     -0.324800
      9 CAH         1.4850   -1.3440   -3.3010 c         1 2TQ      0.657500
     10 OAB         1.5540   -2.5670   -3.2210 o         1 2TQ     -0.595500
     11 CAF         1.6920   -0.3580   -4.4670 cy        1 2TQ     -0.218400
     12 H2          2.3730   -0.9870   -0.8340 h1        1 2TQ      0.060700
     13 H3          3.9880    0.5590   -1.5510 hc        1 2TQ      0.044200
     14 H4          2.9490    1.8430   -0.7960 hc        1 2TQ      0.044200
     15 H5          3.4890    1.4520   -3.6460 hc        1 2TQ      0.034200
     16 H6          2.3650    2.6470   -2.8840 hc        1 2TQ      0.034200
     17 H7          0.5360    1.3970   -3.6330 h1        1 2TQ      0.084700
     18 H8          0.9410   -0.4340   -5.2790 hc        1 2TQ      0.060200
     19 H9          2.7190   -0.3750   -4.8870 hc        1 2TQ      0.060200
@<TRIPOS>BOND
     1    1    2 1   
     2    2    3 1   
     3    2    4 1   
     4    4    5 1   
     5    4    8 1   
     6    4   12 1   
     7    5    6 1   
     8    5   13 1   
     9    5   14 1   
    10    6    7 1   
    11    6   15 1   
    12    6   16 1   
    13    7    8 1   
    14    7   11 1   
    15    7   17 1   
    16    8    9 1   
    17    9   10 2   
    18    9   11 1   
    19   11   18 1   
    20   11   19 1   
@<TRIPOS>SUBSTRUCTURE
     1 2TQ         1 TEMP              0 ****  ****    0 ROOT
