@<TRIPOS>MOLECULE
2TS
   75    77     1     0     0
SMALL
bcc


@<TRIPOS>ATOM
      1 C1         -3.7360    1.9420    0.4930 c3        1 2TS     -0.249300
      2 S19        -2.1380    1.8710   -0.1820 s6        1 2TS      1.448900
      3 C55        -4.4350    3.2120    0.1830 ca        1 2TS     -0.077300
      4 C50        -4.8360    3.4900   -1.1310 ca        1 2TS     -0.114000
      5 C51        -5.5180    4.6700   -1.4190 ca        1 2TS     -0.126000
      6 C52        -5.8100    5.5780   -0.4010 ca        1 2TS     -0.120000
      7 C53        -5.4130    5.3050    0.9080 ca        1 2TS     -0.126000
      8 C54        -4.7300    4.1260    1.2010 ca        1 2TS     -0.114000
      9 O27        -2.2590    1.8180   -1.5870 o         1 2TS     -0.642300
     10 O28        -1.3520    2.8880    0.3830 o         1 2TS     -0.642300
     11 N29        -1.6160    0.4360    0.3720 n3        1 2TS     -0.915100
     12 C28        -1.5670   -0.7760   -0.3950 c3        1 2TS      0.187500
     13 C42        -2.3540   -1.9510    0.2110 c3        1 2TS     -0.095400
     14 C43        -3.8360   -1.6650    0.2960 c3        1 2TS     -0.090400
     15 C44        -4.5810   -2.9500    0.6680 c3        1 2TS      0.183800
     16 N45        -6.0140   -2.7430    0.7530 nh        1 2TS     -0.796200
     17 C34        -6.8140   -3.8790    1.1380 c2        1 2TS      0.745100
     18 N39        -8.2020   -3.5820    1.3570 nh        1 2TS     -0.933800
     19 N38        -6.2710   -5.0640    1.2770 n2        1 2TS     -0.872100
     20 C27        -0.1010   -1.2780   -0.5110 c         1 2TS      0.644100
     21 O38         0.6260   -1.3130    0.5060 o         1 2TS     -0.625100
     22 N25         0.3880   -1.6510   -1.7420 n         1 2TS     -0.452800
     23 C26         1.7030   -2.2670   -1.8970 c3        1 2TS      0.032700
     24 C21         2.8410   -1.2250   -2.0300 c         1 2TS      0.654100
     25 O39         3.5910   -1.2140   -3.0280 o         1 2TS     -0.626100
     26 C22         1.6310   -3.1640   -3.1510 c3        1 2TS     -0.087400
     27 C23         0.3290   -2.8110   -3.8600 c3        1 2TS     -0.090400
     28 C24        -0.4470   -1.8860   -2.9090 c3        1 2TS      0.084000
     29 N19         2.9850   -0.3240   -1.0020 n         1 2TS     -0.551900
     30 C10         4.0520    0.6400   -0.9640 c3        1 2TS      0.129300
     31 C6          5.1000    0.3570    0.0810 ca        1 2TS     -0.105300
     32 C5          6.3160   -0.2680   -0.2240 ca        1 2TS     -0.062300
     33 C32         6.6360   -0.7710   -1.6040 c3        1 2TS      0.182100
     34 N33         7.3250    0.2050   -2.4210 n3        1 2TS     -0.905800
     35 C4          7.2680   -0.4520    0.7880 ca        1 2TS     -0.107000
     36 C3          7.0120   -0.0460    2.0940 ca        1 2TS     -0.121000
     37 C2          5.7870    0.5560    2.3950 ca        1 2TS      0.015400
     38 CL1         5.4560    1.0490    3.9890 cl        1 2TS     -0.096400
     39 C7          4.8340    0.7590    1.3950 ca        1 2TS     -0.118000
     40 H1         -3.7090    1.8020    1.6070 h1        1 2TS      0.111200
     41 H1A        -4.3640    1.0960    0.0980 h1        1 2TS      0.111200
     42 H50        -4.5900    2.7810   -1.9390 ha        1 2TS      0.142000
     43 H51        -5.8240    4.8840   -2.4540 ha        1 2TS      0.136000
     44 H52        -6.3480    6.5090   -0.6310 ha        1 2TS      0.134000
     45 H53        -5.6360    6.0210    1.7120 ha        1 2TS      0.136000
     46 H54        -4.4160    3.9190    2.2360 ha        1 2TS      0.142000
     47 HN29       -1.1700    0.3490    1.2580 hn        1 2TS      0.464800
     48 H28        -1.9880   -0.5460   -1.4220 h1        1 2TS      0.092700
     49 H42        -2.1790   -2.8480   -0.4420 hc        1 2TS      0.065200
     50 H42A       -1.9490   -2.1920    1.2290 hc        1 2TS      0.065200
     51 H43        -4.0270   -0.8740    1.0680 hc        1 2TS      0.046200
     52 H43A       -4.2100   -1.2770   -0.6880 hc        1 2TS      0.046200
     53 H44        -4.3940   -3.7260   -0.1280 h1        1 2TS      0.057200
     54 H44A       -4.1500   -3.3470    1.6330 h1        1 2TS      0.057200
     55 HN45       -6.2370   -1.9350    1.3040 hn        1 2TS      0.387800
     56 HN39       -8.5260   -2.7320    0.9500 hn        1 2TS      0.391800
     57 HN3C       -8.8070   -4.3470    1.1510 hn        1 2TS      0.391800
     58 HN38       -6.9060   -5.8100    1.4560 hn        1 2TS      0.393400
     59 H26         1.9380   -2.8860   -0.9800 h1        1 2TS      0.086700
     60 H22         2.5140   -2.9900   -3.8170 hc        1 2TS      0.076200
     61 H22A        1.6360   -4.2370   -2.8380 hc        1 2TS      0.076200
     62 H23         0.5330   -2.2830   -4.8240 hc        1 2TS      0.060200
     63 H23A       -0.2680   -3.7270   -4.0870 hc        1 2TS      0.060200
     64 H24        -1.4190   -2.3650   -2.6050 h1        1 2TS      0.054200
     65 H24A       -0.6750   -0.9020   -3.4040 h1        1 2TS      0.054200
     66 HN19        2.4680   -0.4590   -0.1610 hn        1 2TS      0.338500
     67 H10         4.5280    0.7040   -1.9840 h1        1 2TS      0.069700
     68 H10A        3.5920    1.6470   -0.7360 h1        1 2TS      0.069700
     69 H32         7.3240   -1.6630   -1.5140 h1        1 2TS      0.049700
     70 H32A        5.6790   -1.1450   -2.0820 h1        1 2TS      0.049700
     71 HN33        7.3390   -0.1050   -3.3740 hn        1 2TS      0.349800
     72 HN3A        6.8680    1.0950   -2.3770 hn        1 2TS      0.349800
     73 H4          8.2330   -0.9210    0.5420 ha        1 2TS      0.146000
     74 H3          7.7680   -0.1970    2.8800 ha        1 2TS      0.147000
     75 H7          3.8730    1.2400    1.6350 ha        1 2TS      0.149000
@<TRIPOS>BOND
     1    1    2 1   
     2    1    3 1   
     3    1   40 1   
     4    1   41 1   
     5    2    9 2   
     6    2   10 2   
     7    2   11 1   
     8    3    4 ar  
     9    3    8 ar  
    10    4    5 ar  
    11    4   42 1   
    12    5    6 ar  
    13    5   43 1   
    14    6    7 ar  
    15    6   44 1   
    16    7    8 ar  
    17    7   45 1   
    18    8   46 1   
    19   11   12 1   
    20   11   47 1   
    21   12   13 1   
    22   12   20 1   
    23   12   48 1   
    24   13   14 1   
    25   13   49 1   
    26   13   50 1   
    27   14   15 1   
    28   14   51 1   
    29   14   52 1   
    30   15   16 1   
    31   15   53 1   
    32   15   54 1   
    33   16   17 1   
    34   16   55 1   
    35   17   18 1   
    36   17   19 2   
    37   18   56 1   
    38   18   57 1   
    39   19   58 1   
    40   20   21 2   
    41   20   22 1   
    42   22   23 1   
    43   22   28 1   
    44   23   24 1   
    45   23   26 1   
    46   23   59 1   
    47   24   25 2   
    48   24   29 1   
    49   26   27 1   
    50   26   60 1   
    51   26   61 1   
    52   27   28 1   
    53   27   62 1   
    54   27   63 1   
    55   28   64 1   
    56   28   65 1   
    57   29   30 1   
    58   29   66 1   
    59   30   31 1   
    60   30   67 1   
    61   30   68 1   
    62   31   32 ar  
    63   31   39 ar  
    64   32   33 1   
    65   32   35 ar  
    66   33   34 1   
    67   33   69 1   
    68   33   70 1   
    69   34   71 1   
    70   34   72 1   
    71   35   36 ar  
    72   35   73 1   
    73   36   37 ar  
    74   36   74 1   
    75   37   38 1   
    76   37   39 ar  
    77   39   75 1   
@<TRIPOS>SUBSTRUCTURE
     1 2TS         1 TEMP              0 ****  ****    0 ROOT
