@<TRIPOS>MOLECULE
2TS
   75    70     1     0     0
SMALL
bcc


@<TRIPOS>ATOM
      1 C1         -2.9600   -3.0330    2.5460 c3        1 2TS     -0.806000
      2 S19        -2.2530   -1.5460    3.3240 s4        1 2TS      2.019800
      3 C55        -1.8460   -4.1400    2.4160 c1        1 2TS     -0.069000
      4 C50        -0.5150   -3.7690    2.2780 c1        1 2TS     -0.120000
      5 C51         0.4530   -4.7380    2.0190 c1        1 2TS     -0.120000
      6 C52         0.0820   -6.0790    1.8980 c1        1 2TS     -0.120000
      7 C53        -1.2490   -6.4450    2.0370 c1        1 2TS     -0.120000
      8 C54        -2.2130   -5.4810    2.2950 c1        1 2TS     -0.132000
      9 O27        -0.8530   -1.6840    3.5290 o         1 2TS     -0.533900
     10 O28        -2.7210   -1.3960    4.6810 o         1 2TS     -0.533900
     11 N29        -2.6000   -0.1750    2.3980 n2        1 2TS     -0.884000
     12 C28        -1.7230    0.9390    2.4270 c3        1 2TS      0.039000
     13 C42        -2.5330    2.2260    2.5520 c3        1 2TS     -0.165000
     14 C43        -1.6570    3.3170    3.1870 c3        1 2TS     -0.201000
     15 C44        -1.8750    4.6040    2.4620 c3        1 2TS     -0.059000
     16 N45        -0.8930    5.5400    2.8510 n3        1 2TS     -0.317000
     17 C34        -0.5370    6.5970    1.9800 c2        1 2TS      0.145000
     18 N39        -0.9070    7.9600    2.3030 n3        1 2TS     -0.321000
     19 N38         0.1520    6.3380    0.8540 n1        1 2TS     -0.341000
     20 C27        -0.9080    0.9760    1.1490 c2        1 2TS      0.276000
     21 O38        -1.4500    1.1910    0.0940 o         1 2TS     -0.387000
     22 N25         0.5230    0.8260    1.2040 n         1 2TS     -0.317000
     23 C26         1.3560    0.8960    0.1840 c3        1 2TS      0.002000
     24 C21         0.6500    0.3930   -1.0990 c2        1 2TS      0.291000
     25 O39        -0.5400    0.0650   -1.0610 o         1 2TS     -0.371000
     26 C22         2.5540   -0.0250    0.6790 c3        1 2TS     -0.164000
     27 C23         2.3140   -0.2810    2.1680 c3        1 2TS     -0.166000
     28 C24         1.3970    0.5380    2.5110 c3        1 2TS     -0.044000
     29 N19         1.3890    0.2420   -2.3030 n         1 2TS     -0.369000
     30 C10         0.7120   -0.1750   -3.5300 c3        1 2TS      0.003000
     31 C6          1.7090   -0.9840   -4.4220 c2        1 2TS     -0.101000
     32 C5          1.5980   -0.9350   -5.8290 c2        1 2TS     -0.068000
     33 C32         0.4910   -0.0690   -6.4940 c3        1 2TS     -0.047000
     34 N33         0.4530   -0.3320   -7.8940 n3        1 2TS     -0.351000
     35 C4          2.4110   -1.7210   -6.6080 c1        1 2TS     -0.108000
     36 C3          3.3470   -2.5690   -6.0070 c1        1 2TS     -0.122000
     37 C2          3.4550   -2.6180   -4.6150 c1        1 2TS     -0.064000
     38 CL1         4.6160   -3.6770   -3.8720 cl        1 2TS     -0.014000
     39 C7          2.6390   -1.8280   -3.8290 c2        1 2TS     -0.111000
     40 H1         -3.3090   -2.8010    1.6340 h1        1 2TS      0.159500
     41 H1A        -3.6770   -3.3650    3.0870 h1        1 2TS      0.159500
     42 H50        -0.2520   -2.8100    2.3660 ha        1 2TS      0.139250
     43 H51         1.3620   -4.4880    1.9230 ha        1 2TS      0.139250
     44 H52         0.7880   -6.7900    1.7080 ha        1 2TS      0.139250
     45 H53        -1.5030   -7.3710    1.9540 ha        1 2TS      0.139250
     46 H54        -3.1460   -5.7410    2.3910 ha        1 2TS      0.151000
     47 HN29       -3.3370   -0.1590    1.8700 hn        1 2TS      0.249000
     48 H28        -1.1350    0.8620    3.1770 h1        1 2TS      0.132000
     49 H42        -2.8340    2.5260    1.6340 hc        1 2TS      0.106000
     50 H42A       -3.3370    2.0620    3.1330 hc        1 2TS      0.106000
     51 H43        -0.6900    3.0510    3.1200 hc        1 2TS      0.092500
     52 H43A       -1.9090    3.4300    4.1560 hc        1 2TS      0.092500
     53 H44        -2.7430    4.9440    2.6760 h1        1 2TS      0.100500
     54 H44A       -1.8130    4.4480    1.4990 h1        1 2TS      0.100500
     55 HN45       -0.4350    5.4290    3.6660 hn        1 2TS      0.193000
     56 HN39       -1.5660    8.1270    2.9410 hn        1 2TS      0.187000
     57 HN3C       -0.5410    8.6580    1.8270 hn        1 2TS      0.187000
     58 HN38        0.3980    5.4440    0.6400 DU        1 2TS      0.152000
     59 H26         1.6850    1.8100   -0.1080 h1        1 2TS      0.121000
     60 H22         3.4450    0.4580    0.5430 hc        1 2TS      0.114000
     61 H22A        2.5520   -0.8610    0.1940 hc        1 2TS      0.114000
     62 H23         3.1290   -0.1110    2.6760 hc        1 2TS      0.101000
     63 H23A        2.0190   -1.1830    2.3060 hc        1 2TS      0.101000
     64 H24         1.7970    1.3760    2.8410 h1        1 2TS      0.106500
     65 H24A        0.8180    0.1270    3.2290 h1        1 2TS      0.106500
     66 HN19        2.3040    0.4420   -2.3190 hn        1 2TS      0.246000
     67 H10         0.4050    0.6100   -4.0140 h1        1 2TS      0.109000
     68 H10A       -0.0460   -0.7310   -3.3060 h1        1 2TS      0.109000
     69 H32        -0.3820   -0.2910   -6.0960 h1        1 2TS      0.080000
     70 H32A        0.6880    0.8890   -6.3450 h1        1 2TS      0.080000
     71 HN33       -0.3320   -0.6860   -8.1060 hn        1 2TS      0.149500
     72 HN3A        0.5640    0.4200   -8.3370 hn        1 2TS      0.149500
     73 H4          2.3340   -1.6880   -7.6050 ha        1 2TS      0.158000
     74 H3          3.9170   -3.1190   -6.5520 ha        1 2TS      0.149000
     75 H7          2.7160   -1.8620   -2.8630 ha        1 2TS      0.154000
@<TRIPOS>BOND
     1    1    2 1   
     2    1    3 1   
     3    1   40 1   
     4    1   41 1   
     5    2    9 1   
     6    2   10 1   
     7    3    8 1   
     8    4    5 1   
     9    4   42 1   
    10    5   43 1   
    11    6    7 1   
    12    6   44 1   
    13    7   45 1   
    14    8   46 1   
    15   11   12 1   
    16   11   47 1   
    17   12   13 1   
    18   12   20 1   
    19   12   48 1   
    20   13   14 1   
    21   13   49 1   
    22   13   50 1   
    23   14   15 1   
    24   14   51 1   
    25   14   52 1   
    26   15   16 1   
    27   15   53 1   
    28   15   54 1   
    29   16   17 1   
    30   16   55 1   
    31   17   18 1   
    32   17   19 1   
    33   18   56 1   
    34   18   57 1   
    35   20   21 1   
    36   20   22 1   
    37   22   23 1   
    38   22   28 1   
    39   23   24 1   
    40   23   26 1   
    41   23   59 1   
    42   24   25 1   
    43   24   29 1   
    44   26   27 1   
    45   26   60 1   
    46   26   61 1   
    47   27   28 1   
    48   27   62 1   
    49   27   63 1   
    50   28   64 1   
    51   28   65 1   
    52   29   30 1   
    53   29   66 1   
    54   30   31 1   
    55   30   67 1   
    56   30   68 1   
    57   31   32 1   
    58   31   39 1   
    59   32   33 1   
    60   32   35 1   
    61   33   34 1   
    62   33   69 1   
    63   33   70 1   
    64   34   71 1   
    65   34   72 1   
    66   35   73 1   
    67   36   37 1   
    68   36   74 1   
    69   37   39 1   
    70   39   75 1   
@<TRIPOS>SUBSTRUCTURE
     1 2TS         1 TEMP              0 ****  ****    0 ROOT
