@<TRIPOS>MOLECULE
2TT
   38    40     1     0     0
SMALL
bcc


@<TRIPOS>ATOM
      1 C7         -0.6650    0.0740    0.3100 ca        1 2TT     -0.214600
      2 C2          0.4250   -0.7660    0.0030 ca        1 2TT      0.046400
      3 C4          1.2430   -0.5690    2.2730 ca        1 2TT     -0.023000
      4 C6         -0.7660    0.5970    1.6180 ca        1 2TT     -0.028000
      5 CL1         0.6800   -1.4120   -1.5600 cl        1 2TT     -0.058400
      6 C3          1.3700   -1.0830    0.9770 ca        1 2TT     -0.103000
      7 C5          0.1760    0.2710    2.5890 ca        1 2TT     -0.115000
      8 C8         -1.7110    0.5220   -0.6040 c         1 2TT      0.595700
      9 O9         -2.3950    1.5330   -0.5330 o         1 2TT     -0.435100
     10 N10        -2.0750   -0.4190   -1.7640 n4        1 2TT     -0.591200
     11 C11        -2.5640    0.2670   -2.9580 ca        1 2TT      0.032600
     12 C12        -1.8260    0.2310   -4.1480 ca        1 2TT     -0.170300
     13 C13        -2.3490    0.9080   -5.2770 ca        1 2TT      0.464200
     14 N14        -3.4980    1.5900   -5.2700 nb        1 2TT     -0.605000
     15 C15        -4.1990    1.6260   -4.0980 ca        1 2TT      0.491200
     16 N16        -5.4580    2.3990   -4.0970 n4        1 2TT     -0.680500
     17 C17        -6.6970    1.4710   -4.0860 c         1 2TT      0.617100
     18 O18        -6.8160    0.8270   -3.0570 o         1 2TT     -0.428100
     19 C19        -7.5290    1.5370   -5.2880 cx        1 2TT     -0.298700
     20 C20        -8.5150    0.3960   -5.5250 cx        1 2TT     -0.052900
     21 C21        -9.0340    1.7240   -5.1050 cx        1 2TT     -0.052900
     22 C22        -3.7870    0.9770   -2.9150 ca        1 2TT     -0.167300
     23 H1          1.9960   -0.8300    3.0400 ha        1 2TT      0.190000
     24 H2         -1.6020    1.2750    1.8690 ha        1 2TT      0.176000
     25 H3          2.2270   -1.7370    0.7300 ha        1 2TT      0.193000
     26 H4          0.0770    0.6850    3.6090 ha        1 2TT      0.189000
     27 H5         -2.8050   -1.0600   -1.4270 hn        1 2TT      0.481300
     28 H6         -0.8610   -0.2990   -4.2420 ha        1 2TT      0.199000
     29 H7         -1.8000    0.9010   -6.2470 h4        1 2TT      0.098100
     30 H8         -5.4680    2.9830   -3.2490 hn        1 2TT      0.482300
     31 H9         -7.0560    1.9970   -6.1800 hc        1 2TT      0.134700
     32 H10        -8.6460    0.0540   -6.5710 hc        1 2TT      0.117700
     33 H11        -8.5350   -0.4440   -4.8030 hc        1 2TT      0.117700
     34 H12        -9.5500    2.3760   -5.8380 hc        1 2TT      0.117700
     35 H13        -9.4350    1.8480   -4.0810 hc        1 2TT      0.117700
     36 H14        -4.3910    1.0280   -1.9910 ha        1 2TT      0.202000
     37 H102       -1.2180   -0.9820   -2.0050 hn        1 2TT      0.481300
     38 H162       -5.4980    3.0150   -4.9240 hn        1 2TT      0.482300
@<TRIPOS>BOND
     1    1    2 ar  
     2    1    4 ar  
     3    1    8 1   
     4    2    5 1   
     5    2    6 ar  
     6    3    6 ar  
     7    3    7 ar  
     8    3   23 1   
     9    4    7 ar  
    10    4   24 1   
    11    6   25 1   
    12    7   26 1   
    13    8    9 2   
    14    8   10 1   
    15   10   11 1   
    16   10   27 1   
    17   10   37 1   
    18   11   12 ar  
    19   11   22 ar  
    20   12   13 ar  
    21   12   28 1   
    22   13   14 ar  
    23   13   29 1   
    24   14   15 ar  
    25   15   16 1   
    26   15   22 ar  
    27   16   17 1   
    28   16   30 1   
    29   16   38 1   
    30   17   18 2   
    31   17   19 1   
    32   19   20 1   
    33   19   21 1   
    34   19   31 1   
    35   20   21 1   
    36   20   32 1   
    37   20   33 1   
    38   21   34 1   
    39   21   35 1   
    40   22   36 1   
@<TRIPOS>SUBSTRUCTURE
     1 2TT         1 TEMP              0 ****  ****    0 ROOT
