@<TRIPOS>MOLECULE
2TT
   36    38     1     0     0
SMALL
bcc


@<TRIPOS>ATOM
      1 C7          0.1080    0.1710   -0.0350 ca        1 2TT     -0.143600
      2 C2         -0.3570   -0.8340    0.8230 ca        1 2TT      0.037400
      3 C4          1.1180   -0.0370    2.5640 ca        1 2TT     -0.101000
      4 C6          1.0910    1.0610    0.4140 ca        1 2TT     -0.074000
      5 Cl1        -1.5210   -1.9630    0.3120 cl        1 2TT     -0.082400
      6 C3          0.1510   -0.9380    2.1240 ca        1 2TT     -0.130000
      7 C5          1.5900    0.9600    1.7110 ca        1 2TT     -0.132000
      8 C8         -0.3620    0.3240   -1.4480 c         1 2TT      0.687700
      9 O9          0.4460    0.3360   -2.3910 o         1 2TT     -0.565100
     10 N10        -1.7320    0.5000   -1.6070 ns        1 2TT     -0.464100
     11 C11        -2.4280    0.6670   -2.8110 ca        1 2TT      0.130600
     12 C12        -1.8000    0.7950   -4.0660 ca        1 2TT     -0.301300
     13 C13        -2.6140    0.9680   -5.1960 ca        1 2TT      0.443200
     14 N14        -3.9530    1.0200   -5.1900 nb        1 2TT     -0.684000
     15 C15        -4.5700    0.9110   -3.9720 ca        1 2TT      0.562200
     16 N16        -5.9770    0.9530   -3.8880 ns        1 2TT     -0.569400
     17 C17        -6.8430    1.5800   -4.7860 c         1 2TT      0.700100
     18 O18        -6.4580    2.3690   -5.6600 o         1 2TT     -0.540100
     19 C19        -8.2970    1.2610   -4.5810 cx        1 2TT     -0.230700
     20 C20        -9.2560    1.5920   -5.6950 cx        1 2TT     -0.106900
     21 C21        -8.9180    0.1620   -5.4060 cx        1 2TT     -0.106900
     22 C22        -3.8420    0.7260   -2.7650 ca        1 2TT     -0.350300
     23 H1          1.5130   -0.1200    3.5890 ha        1 2TT      0.144000
     24 H2          1.4720    1.8330   -0.2740 ha        1 2TT      0.158000
     25 H3         -0.2120   -1.7320    2.7950 ha        1 2TT      0.153000
     26 H4          2.3610    1.6650    2.0580 ha        1 2TT      0.146000
     27 H5         -2.2950    0.4380   -0.7860 hn        1 2TT      0.325500
     28 H6         -0.7070    0.7610   -4.1780 ha        1 2TT      0.182000
     29 H7         -2.1520    1.0680   -6.1970 h4        1 2TT      0.029100
     30 H8         -6.3740    0.4270   -3.1430 hn        1 2TT      0.319500
     31 H9         -8.6330    1.4010   -3.5350 hc        1 2TT      0.093700
     32 H10       -10.2560    1.9790   -5.4300 hc        1 2TT      0.083200
     33 H11        -8.8500    2.0680   -6.6070 hc        1 2TT      0.083200
     34 H12        -8.2830   -0.3930   -6.1200 hc        1 2TT      0.083200
     35 H13        -9.6720   -0.4890   -4.9290 hc        1 2TT      0.083200
     36 H14        -4.3750    0.6390   -1.8080 ha        1 2TT      0.137000
@<TRIPOS>BOND
     1    1    2 ar  
     2    1    4 ar  
     3    1    8 1   
     4    2    5 1   
     5    2    6 ar  
     6    3    6 ar  
     7    3    7 ar  
     8    3   23 1   
     9    4    7 ar  
    10    4   24 1   
    11    6   25 1   
    12    7   26 1   
    13    8    9 2   
    14    8   10 1   
    15   10   11 1   
    16   10   27 1   
    17   11   12 ar  
    18   11   22 ar  
    19   12   13 ar  
    20   12   28 1   
    21   13   14 ar  
    22   13   29 1   
    23   14   15 ar  
    24   15   16 1   
    25   15   22 ar  
    26   16   17 1   
    27   16   30 1   
    28   17   18 2   
    29   17   19 1   
    30   19   20 1   
    31   19   21 1   
    32   19   31 1   
    33   20   21 1   
    34   20   32 1   
    35   20   33 1   
    36   21   34 1   
    37   21   35 1   
    38   22   36 1   
@<TRIPOS>SUBSTRUCTURE
     1 2TT         1 TEMP              0 ****  ****    0 ROOT
