@<TRIPOS>MOLECULE
2TT
   36    38     1     0     0
SMALL
bcc


@<TRIPOS>ATOM
      1 C7          0.0300    0.1210   -0.0020 ca        1 2TT     -0.144600
      2 C2         -0.4100   -1.0460    0.6370 ca        1 2TT      0.036400
      3 C4          0.8920   -0.4730    2.5920 ca        1 2TT     -0.101000
      4 C6          0.9140    0.9790    0.6640 ca        1 2TT     -0.075000
      5 CL1        -1.4530   -2.1400   -0.1420 cl        1 2TT     -0.079400
      6 C3          0.0230   -1.3430    1.9350 ca        1 2TT     -0.130000
      7 C5          1.3390    0.6850    1.9570 ca        1 2TT     -0.133000
      8 C8         -0.3620    0.4880   -1.3990 c         1 2TT      0.686700
      9 O9          0.5000    0.7260   -2.2610 o         1 2TT     -0.565100
     10 N10        -1.7290    0.5970   -1.6280 n         1 2TT     -0.464100
     11 C11        -2.3610    0.9070   -2.8390 ca        1 2TT      0.131600
     12 C12        -1.6690    1.1960   -4.0320 ca        1 2TT     -0.303300
     13 C13        -2.4230    1.5080   -5.1730 ca        1 2TT      0.444200
     14 N14        -3.7600    1.5580   -5.2330 nb        1 2TT     -0.684000
     15 C15        -4.4420    1.2620   -4.0820 ca        1 2TT      0.563200
     16 N16        -5.8500    1.3010   -4.0650 n         1 2TT     -0.569400
     17 C17        -6.7020    1.1360   -5.1590 c         1 2TT      0.701100
     18 O18        -6.3170    0.7310   -6.2650 o         1 2TT     -0.540100
     19 C19        -8.1450    1.4510   -4.8810 cx        1 2TT     -0.230700
     20 C20        -9.1650    1.0560   -5.9180 cx        1 2TT     -0.106900
     21 C21        -9.0980    0.3120   -4.6200 cx        1 2TT     -0.106900
     22 C22        -3.7760    0.9370   -2.8680 ca        1 2TT     -0.354300
     23 H1          1.2280   -0.7090    3.6130 ha        1 2TT      0.144000
     24 H2          1.2790    1.8810    0.1460 ha        1 2TT      0.157000
     25 H3         -0.3190   -2.2630    2.4330 ha        1 2TT      0.154000
     26 H4          2.0320    1.3660    2.4740 ha        1 2TT      0.145000
     27 H5         -2.3350    0.3570   -0.8730 hn        1 2TT      0.324500
     28 H6         -0.5710    1.1830   -4.0880 ha        1 2TT      0.183000
     29 H7         -1.9090    1.7440   -6.1260 h4        1 2TT      0.030100
     30 H8         -6.2610    1.4740   -3.1760 hn        1 2TT      0.320500
     31 H9         -8.2900    2.4040   -4.3360 hc        1 2TT      0.095700
     32 H10        -8.8060    0.5620   -6.8400 hc        1 2TT      0.082950
     33 H11       -10.0110    1.7400   -6.1090 hc        1 2TT      0.082950
     34 H12        -9.8940    0.4560   -3.8680 hc        1 2TT      0.082950
     35 H13        -8.7070   -0.7220   -4.6170 hc        1 2TT      0.082950
     36 H14        -4.3580    0.7070   -1.9640 ha        1 2TT      0.136000
@<TRIPOS>BOND
     1    1    2 ar  
     2    1    4 ar  
     3    1    8 1   
     4    2    5 1   
     5    2    6 ar  
     6    3    6 ar  
     7    3    7 ar  
     8    3   23 1   
     9    4    7 ar  
    10    4   24 1   
    11    6   25 1   
    12    7   26 1   
    13    8    9 2   
    14    8   10 1   
    15   10   11 1   
    16   10   27 1   
    17   11   12 ar  
    18   11   22 ar  
    19   12   13 ar  
    20   12   28 1   
    21   13   14 ar  
    22   13   29 1   
    23   14   15 ar  
    24   15   16 1   
    25   15   22 ar  
    26   16   17 1   
    27   16   30 1   
    28   17   18 2   
    29   17   19 1   
    30   19   20 1   
    31   19   21 1   
    32   19   31 1   
    33   20   21 1   
    34   20   32 1   
    35   20   33 1   
    36   21   34 1   
    37   21   35 1   
    38   22   36 1   
@<TRIPOS>SUBSTRUCTURE
     1 2TT         1 TEMP              0 ****  ****    0 ROOT
