@<TRIPOS>MOLECULE
2TU
   29    30     1     0     0
SMALL
bcc


@<TRIPOS>ATOM
      1 N1         -0.6990   -0.0350   -0.0660 n         1 2TU     -0.343000
      2 C2         -1.8510   -0.3390    0.6950 c         1 2TU      0.555400
      3 S2         -1.9470   -1.6100    1.6760 s         1 2TU     -0.481400
      4 N3         -2.9530    0.5020    0.5470 n         1 2TU     -0.543500
      5 C4         -2.9840    1.6340   -0.2940 c         1 2TU      0.700700
      6 O4         -4.0180    2.3170   -0.3490 o         1 2TU     -0.592500
      7 C5         -1.7520    1.9010   -1.0450 cc        1 2TU     -0.293200
      8 C6         -0.6800    1.0830   -0.8930 cd        1 2TU      0.028600
      9 C1'         0.5220   -0.8100    0.1460 c3        1 2TU      0.236500
     10 C2'         1.2350   -1.2280   -1.1830 c3        1 2TU      0.132100
     11 O2'         1.3870   -2.6200   -1.2300 oh        1 2TU     -0.556800
     12 C3'         2.5710   -0.4500   -1.1730 c3        1 2TU      0.080100
     13 O3'         3.6070   -1.4020   -1.3100 oh        1 2TU     -0.583800
     14 C4'         2.6390    0.2620    0.1880 c3        1 2TU      0.045100
     15 O4'         1.4580   -0.0610    0.9330 os        1 2TU     -0.411600
     16 C5'         2.7560    1.7820    0.0680 c3        1 2TU      0.122400
     17 O5'         3.0120    2.3710    1.3230 oh        1 2TU     -0.586800
     18 HN3        -3.7680    0.2670    1.0810 hn        1 2TU      0.365500
     19 H5         -1.7510    2.7710   -1.7130 ha        1 2TU      0.182000
     20 H6          0.2710    1.2520   -1.4340 h4        1 2TU      0.159000
     21 H1'         0.2530   -1.7230    0.7740 h2        1 2TU      0.163700
     22 H2'         0.6290   -0.9810   -2.0960 h1        1 2TU      0.100700
     23 HO2'        2.1040   -2.8730   -0.6310 ho        1 2TU      0.428000
     24 H3'         2.6070    0.2880   -2.0190 h1        1 2TU      0.059700
     25 HO3'        4.4400   -0.9140   -1.3310 ho        1 2TU      0.420000
     26 H4'         3.4930   -0.1330    0.8090 h1        1 2TU      0.096700
     27 H5'         3.6420    2.0520   -0.5670 h1        1 2TU      0.048700
     28 H5'A        1.8210    2.2130   -0.3790 h1        1 2TU      0.048700
     29 HO5'        2.3010    2.0960    1.9190 ho        1 2TU      0.419000
@<TRIPOS>BOND
     1    1    2 1   
     2    1    8 1   
     3    1    9 1   
     4    2    3 2   
     5    2    4 1   
     6    4    5 1   
     7    4   18 1   
     8    5    6 2   
     9    5    7 1   
    10    7    8 2   
    11    7   19 1   
    12    8   20 1   
    13    9   10 1   
    14    9   15 1   
    15    9   21 1   
    16   10   11 1   
    17   10   12 1   
    18   10   22 1   
    19   11   23 1   
    20   12   13 1   
    21   12   14 1   
    22   12   24 1   
    23   13   25 1   
    24   14   15 1   
    25   14   16 1   
    26   14   26 1   
    27   16   17 1   
    28   16   27 1   
    29   16   28 1   
    30   17   29 1   
@<TRIPOS>SUBSTRUCTURE
     1 2TU         1 TEMP              0 ****  ****    0 ROOT
