@<TRIPOS>MOLECULE
2TU
   29    30     1     0     0
SMALL
bcc


@<TRIPOS>ATOM
      1 N1         -0.2260    0.0180   -0.1550 n         1 2TU     -0.346000
      2 C2          0.9810   -0.6210    0.1760 c         1 2TU      0.562400
      3 S2          1.8060   -1.5150   -0.8980 s         1 2TU     -0.567400
      4 N3          1.4540   -0.4810    1.4720 n         1 2TU     -0.534500
      5 C4          0.8050    0.2850    2.4700 c         1 2TU      0.698700
      6 O4          1.3140    0.3420    3.5990 o         1 2TU     -0.590500
      7 C5         -0.4330    0.9460    2.0520 cc        1 2TU     -0.300200
      8 C6         -0.8890    0.8050    0.7810 cd        1 2TU      0.033600
      9 C1'        -0.6520   -0.0340   -1.5610 c3        1 2TU      0.264500
     10 C2'        -1.2700   -1.4080   -1.9860 c3        1 2TU      0.092100
     11 O2'        -0.5860   -1.8990   -3.1150 oh        1 2TU     -0.599800
     12 C3'        -2.7250   -1.0990   -2.3980 c3        1 2TU      0.137100
     13 O3'        -3.0430   -1.4700   -3.7150 oh        1 2TU     -0.573800
     14 C4'        -2.8900    0.4190   -2.1850 c3        1 2TU      0.049100
     15 O4'        -1.6160    0.9830   -1.8380 os        1 2TU     -0.406600
     16 C5'        -3.9120    0.7460   -1.0970 c3        1 2TU      0.112400
     17 O5'        -3.6700    2.0020   -0.4970 oh        1 2TU     -0.596800
     18 HN3         2.3130   -0.9500    1.6920 hn        1 2TU      0.366500
     19 H5         -0.9550    1.5520    2.8040 ha        1 2TU      0.186000
     20 H6         -1.8130    1.3100    0.4190 h4        1 2TU      0.211000
     21 H1'         0.2520    0.2130   -2.2040 h2        1 2TU      0.122700
     22 H2'        -1.2430   -2.1600   -1.1540 h1        1 2TU      0.077700
     23 HO2'        0.3190   -2.1110   -2.8180 ho        1 2TU      0.452000
     24 H3'        -3.4490   -1.6790   -1.7600 h1        1 2TU      0.094700
     25 HO3'       -2.2900   -1.2600   -4.2860 ho        1 2TU      0.430000
     26 H4'        -3.1730    0.9290   -3.1490 h1        1 2TU      0.092700
     27 H5'        -4.9410    0.7250   -1.5450 h1        1 2TU      0.058700
     28 H5'A       -3.8600    0.0150   -0.2460 h1        1 2TU      0.058700
     29 HO5'       -3.4820    2.6340   -1.2030 ho        1 2TU      0.414000
@<TRIPOS>BOND
     1    1    2 1   
     2    1    8 1   
     3    1    9 1   
     4    2    3 2   
     5    2    4 1   
     6    4    5 1   
     7    4   18 1   
     8    5    6 2   
     9    5    7 1   
    10    7    8 2   
    11    7   19 1   
    12    8   20 1   
    13    9   10 1   
    14    9   15 1   
    15    9   21 1   
    16   10   11 1   
    17   10   12 1   
    18   10   22 1   
    19   11   23 1   
    20   12   13 1   
    21   12   14 1   
    22   12   24 1   
    23   13   25 1   
    24   14   15 1   
    25   14   16 1   
    26   14   26 1   
    27   16   17 1   
    28   16   27 1   
    29   16   28 1   
    30   17   29 1   
@<TRIPOS>SUBSTRUCTURE
     1 2TU         1 TEMP              0 ****  ****    0 ROOT
