@<TRIPOS>MOLECULE
2TU
   29    30     1     0     0
SMALL
bcc


@<TRIPOS>ATOM
      1 N1          0.3400   -0.7810    1.0430 n         1 2TU     -0.352000
      2 C2          1.7880   -0.7330    1.0110 c         1 2TU      0.561400
      3 S2          2.5980   -0.7250   -0.4720 s         1 2TU     -0.481400
      4 N3          2.5410   -0.5770    2.2470 n         1 2TU     -0.549500
      5 C4          1.8670   -0.5160    3.4790 c         1 2TU      0.696700
      6 O4          2.4950   -0.5710    4.5110 o         1 2TU     -0.596500
      7 C5          0.4010   -0.5650    3.5140 cc        1 2TU     -0.292200
      8 C6         -0.3450   -0.7170    2.2840 cd        1 2TU      0.017600
      9 C1'        -0.3120   -0.9980   -0.0340 c3        1 2TU      0.275500
     10 C2'        -1.5840   -0.1210   -0.0800 c3        1 2TU      0.117100
     11 O2'        -2.7510   -0.9320   -0.5020 oh        1 2TU     -0.582800
     12 C3'        -1.3220    0.8150   -0.9880 c3        1 2TU      0.089100
     13 O3'        -2.5320    1.1770   -1.6940 oh        1 2TU     -0.601800
     14 C4'        -0.2490    0.1610   -2.0130 c3        1 2TU      0.047100
     15 O4'         0.5520   -0.5680   -1.2900 os        1 2TU     -0.364600
     16 C5'         0.5270    1.2430   -2.7120 c3        1 2TU      0.128400
     17 O5'         1.3910    0.6580   -3.6760 oh        1 2TU     -0.596800
     18 HN3         3.4440   -0.5470    2.2240 hn        1 2TU      0.364500
     19 H5         -0.0800   -0.5220    4.3870 ha        1 2TU      0.183000
     20 H6         -1.3040   -0.7490    2.3050 h4        1 2TU      0.186000
     21 H1'        -0.5520   -1.9420   -0.0970 h2        1 2TU      0.092700
     22 H2'        -1.7520    0.2920    0.8050 h1        1 2TU      0.098700
     23 HO2'       -3.3930   -0.8860    0.1290 ho        1 2TU      0.437000
     24 H3'        -0.9390    1.5970   -0.5610 h1        1 2TU      0.070700
     25 HO3'       -2.6590    2.0480   -1.6320 ho        1 2TU      0.426000
     26 H4'        -0.7000   -0.3860   -2.6550 h1        1 2TU      0.097700
     27 H5'         1.0590    1.7400   -2.0560 h1        1 2TU      0.045700
     28 H5'A       -0.0950    1.8550   -3.1590 h1        1 2TU      0.045700
     29 HO5'        1.5660    1.2510   -4.3170 ho        1 2TU      0.439000
@<TRIPOS>BOND
     1    1    2 1   
     2    1    8 1   
     3    1    9 1   
     4    2    3 2   
     5    2    4 1   
     6    4    5 1   
     7    4   18 1   
     8    5    6 2   
     9    5    7 1   
    10    7    8 2   
    11    7   19 1   
    12    8   20 1   
    13    9   10 1   
    14    9   15 1   
    15    9   21 1   
    16   10   11 1   
    17   10   12 1   
    18   10   22 1   
    19   11   23 1   
    20   12   13 1   
    21   12   14 1   
    22   12   24 1   
    23   13   25 1   
    24   14   15 1   
    25   14   16 1   
    26   14   26 1   
    27   16   17 1   
    28   16   27 1   
    29   16   28 1   
    30   17   29 1   
@<TRIPOS>SUBSTRUCTURE
     1 2TU         1 TEMP              0 ****  ****    0 ROOT
