@<TRIPOS>MOLECULE
2TU
   29    30     1     0     0
SMALL
bcc


@<TRIPOS>ATOM
      1 N1         -0.2150    0.0110   -0.1630 n         1 2TU     -0.346000
      2 C2          1.0180   -0.5940    0.1330 c         1 2TU      0.563400
      3 S2          1.8400   -1.4660   -0.9610 s         1 2TU     -0.566400
      4 N3          1.5230   -0.4450    1.4170 n         1 2TU     -0.534500
      5 C4          0.8790    0.2950    2.4380 c         1 2TU      0.698700
      6 O4          1.4190    0.3630    3.5520 o         1 2TU     -0.590500
      7 C5         -0.3910    0.9180    2.0580 cc        1 2TU     -0.300200
      8 C6         -0.8760    0.7710    0.7990 cd        1 2TU      0.033600
      9 C1'        -0.6760   -0.0250   -1.5600 c3        1 2TU      0.267500
     10 C2'        -1.3430   -1.3790   -1.9710 c3        1 2TU      0.092100
     11 O2'        -0.6210   -1.9970   -3.0080 oh        1 2TU     -0.606800
     12 C3'        -2.7400   -1.0000   -2.5080 c3        1 2TU      0.137100
     13 O3'        -2.8960   -1.1390   -3.9040 oh        1 2TU     -0.590800
     14 C4'        -2.9020    0.4950   -2.1800 c3        1 2TU      0.081100
     15 O4'        -1.6210    1.0200   -1.7980 os        1 2TU     -0.404600
     16 C5'        -3.9200    0.7360   -1.0660 c3        1 2TU      0.108400
     17 O5'        -3.6960    1.9570   -0.3940 oh        1 2TU     -0.596800
     18 HN3         2.4010   -0.8880    1.6090 hn        1 2TU      0.366500
     19 H5         -0.9130    1.5000    2.8280 ha        1 2TU      0.186000
     20 H6         -1.8250    1.2490    0.4660 h4        1 2TU      0.210000
     21 H1'         0.2170    0.1990   -2.2250 h2        1 2TU      0.125700
     22 H2'        -1.4360   -2.0800   -1.0970 h1        1 2TU      0.068700
     23 HO2'        0.2860   -2.1430   -2.6750 ho        1 2TU      0.458000
     24 H3'        -3.5290   -1.6200   -1.9990 h1        1 2TU      0.062700
     25 HO3'       -2.3560   -1.8840   -4.2010 ho        1 2TU      0.439000
     26 H4'        -3.1810    1.0780   -3.1040 h1        1 2TU      0.106700
     27 H5'        -4.9530    0.7220   -1.5080 h1        1 2TU      0.058200
     28 H5'A       -3.8470   -0.0450   -0.2620 h1        1 2TU      0.058200
     29 HO5'       -3.5260    2.6340   -1.0620 ho        1 2TU      0.415000
@<TRIPOS>BOND
     1    1    2 1   
     2    1    8 1   
     3    1    9 1   
     4    2    3 2   
     5    2    4 1   
     6    4    5 1   
     7    4   18 1   
     8    5    6 2   
     9    5    7 1   
    10    7    8 2   
    11    7   19 1   
    12    8   20 1   
    13    9   10 1   
    14    9   15 1   
    15    9   21 1   
    16   10   11 1   
    17   10   12 1   
    18   10   22 1   
    19   11   23 1   
    20   12   13 1   
    21   12   14 1   
    22   12   24 1   
    23   13   25 1   
    24   14   15 1   
    25   14   16 1   
    26   14   26 1   
    27   16   17 1   
    28   16   27 1   
    29   16   28 1   
    30   17   29 1   
@<TRIPOS>SUBSTRUCTURE
     1 2TU         1 TEMP              0 ****  ****    0 ROOT
