@<TRIPOS>MOLECULE
2TV
   32    32     1     0     0
SMALL
bcc


@<TRIPOS>ATOM
      1 CAB         0.4860   -0.7150   -0.1480 c3        1 2TV     -0.150100
      2 CAP         1.9580   -0.5530   -0.0300 c         1 2TV      0.645100
      3 OAD         2.6940   -0.7010    0.9400 o         1 2TV     -0.502000
      4 OAN         2.5310   -0.1830   -1.2410 os        1 2TV     -0.374200
      5 CAI         3.8900    0.0660   -1.2780 c2        1 2TV      0.108100
      6 CAR         4.4600    0.3060   -2.4810 ce        1 2TV     -0.283800
      7 CAJ         3.7020    0.3250   -3.7490 c3        1 2TV      0.057900
      8 SAO         4.5030   -0.6020   -5.0270 ss        1 2TV     -0.367200
      9 CAS         5.8990    0.6000   -2.5770 ce        1 2TV      0.457600
     10 CAQ         6.5230    1.1770   -1.3280 c         1 2TV      0.552800
     11 OAF         7.5590    0.5260   -0.7460 oh        1 2TV     -0.568100
     12 OAE         6.1520    2.1960   -0.7510 o         1 2TV     -0.478000
     13 NAL         6.6650    0.4440   -3.6030 n2        1 2TV     -0.564900
     14 CAU         6.2460   -0.1440   -4.8330 c3        1 2TV      0.201600
     15 CAV         7.0310   -1.4690   -5.1370 c3        1 2TV     -0.001300
     16 NAK         8.4550   -1.3560   -4.9860 ns        1 2TV     -0.559900
     17 CAH         9.0890   -1.4500   -3.7710 c         1 2TV      0.682900
     18 OAC         8.5010   -1.7240   -2.7090 o         1 2TV     -0.633100
     19 CAT         6.6070   -1.9020   -6.5410 c         1 2TV      0.558900
     20 OAG         7.3590   -1.8940   -7.5120 o         1 2TV     -0.508100
     21 H1         -0.0110    0.0560    0.4920 hc        1 2TV      0.085033
     22 H2          0.2040   -1.7330    0.2190 hc        1 2TV      0.085033
     23 H3          0.1490   -0.5920   -1.2060 hc        1 2TV      0.085033
     24 H7          3.5530    1.3830   -4.0850 h1        1 2TV      0.093200
     25 H8          2.6910   -0.1450   -3.6280 h1        1 2TV      0.093200
     26 H10         6.4790    0.6100   -5.6390 h2        1 2TV      0.106700
     27 H11         6.6670   -2.2560   -4.4040 h1        1 2TV      0.113700
     28 H12         7.8370   -0.2430   -1.2760 ho        1 2TV      0.469000
     29 H13        10.1920   -1.2900   -3.8270 h5        1 2TV      0.041200
     30 H14         5.5420   -2.2260   -6.6040 h4        1 2TV      0.038200
     31 H4          4.4250    0.0670   -0.3120 h4        1 2TV      0.187000
     32 HAK2        8.9620   -1.0450   -5.7840 hn        1 2TV      0.328500
@<TRIPOS>BOND
     1    1    2 1   
     2    1   21 1   
     3    1   22 1   
     4    1   23 1   
     5    2    3 2   
     6    2    4 1   
     7    4    5 1   
     8    5    6 2   
     9    5   31 1   
    10    6    7 1   
    11    6    9 1   
    12    7    8 1   
    13    7   24 1   
    14    7   25 1   
    15    8   14 1   
    16    9   10 1   
    17    9   13 2   
    18   10   11 1   
    19   10   12 2   
    20   11   28 1   
    21   13   14 1   
    22   14   15 1   
    23   14   26 1   
    24   15   16 1   
    25   15   19 1   
    26   15   27 1   
    27   16   17 1   
    28   16   32 1   
    29   17   18 2   
    30   17   29 1   
    31   19   20 2   
    32   19   30 1   
@<TRIPOS>SUBSTRUCTURE
     1 2TV         1 TEMP              0 ****  ****    0 ROOT
