@<TRIPOS>MOLECULE
2TV
   32    32     1     0     0
SMALL
bcc


@<TRIPOS>ATOM
      1 CAB         0.4370   -0.7030   -0.2360 c3        1 2TV     -0.150100
      2 CAP         1.9130   -0.6150   -0.0880 c         1 2TV      0.645100
      3 OAD         2.6260   -0.8640    0.8780 o         1 2TV     -0.502000
      4 OAN         2.5200   -0.1840   -1.2610 os        1 2TV     -0.374200
      5 CAI         3.8880    0.0070   -1.2640 c2        1 2TV      0.108100
      6 CAR         4.4870    0.3070   -2.4380 ce        1 2TV     -0.283800
      7 CAJ         3.7500    0.4500   -3.7110 c3        1 2TV      0.057900
      8 SAO         4.5310   -0.4180   -5.0420 ss        1 2TV     -0.367200
      9 CAS         5.9390    0.5440   -2.4950 ce        1 2TV      0.457600
     10 CAQ         6.5660    1.0030   -1.2000 c         1 2TV      0.552800
     11 OAF         7.5640    0.2670   -0.6520 oh        1 2TV     -0.568100
     12 OAE         6.2320    1.9950   -0.5580 o         1 2TV     -0.478000
     13 NAL         6.7130    0.4270   -3.5190 n2        1 2TV     -0.564900
     14 CAU         6.2890   -0.0550   -4.7930 c3        1 2TV      0.201600
     15 CAV         7.0190   -1.3900   -5.1800 c3        1 2TV     -0.001300
     16 NAK         8.4450   -1.3520   -5.0030 n         1 2TV     -0.559900
     17 CAH         9.0530   -1.5590   -3.7890 c         1 2TV      0.682900
     18 OAC         8.4370   -1.8800   -2.7570 o         1 2TV     -0.633100
     19 CAT         6.5990   -1.7030   -6.6160 c         1 2TV      0.558900
     20 OAG         7.3670   -1.6620   -7.5740 o         1 2TV     -0.508100
     21 H1          0.1210   -0.4770   -1.2830 hc        1 2TV      0.085033
     22 H2          0.1080   -1.7350    0.0410 hc        1 2TV      0.085033
     23 H3         -0.0370    0.0320    0.4620 hc        1 2TV      0.085033
     24 H7          2.7190    0.0180   -3.6370 h1        1 2TV      0.093200
     25 H8          3.6530    1.5350   -3.9730 h1        1 2TV      0.093200
     26 H10         6.5680    0.7430   -5.5410 h2        1 2TV      0.106700
     27 H11         6.6090   -2.2090   -4.5090 h1        1 2TV      0.113700
     28 H12         8.9770   -1.0090   -5.7700 hn        1 2TV      0.328500
     29 H13        10.1630   -1.4460   -3.8180 h5        1 2TV      0.041200
     30 H14         5.5220   -1.9730   -6.7160 h4        1 2TV      0.038200
     31 H4          4.4080   -0.0850   -0.2930 h4        1 2TV      0.187000
     32 HAK2        7.8150   -0.4750   -1.2310 ho        1 2TV      0.469000
@<TRIPOS>BOND
     1    1    2 1   
     2    1   21 1   
     3    1   22 1   
     4    1   23 1   
     5    2    3 2   
     6    2    4 1   
     7    4    5 1   
     8    5    6 2   
     9    5   31 1   
    10    6    7 1   
    11    6    9 1   
    12    7    8 1   
    13    7   24 1   
    14    7   25 1   
    15    8   14 1   
    16    9   10 1   
    17    9   13 2   
    18   10   11 1   
    19   10   12 2   
    20   11   32 1   
    21   13   14 1   
    22   14   15 1   
    23   14   26 1   
    24   15   16 1   
    25   15   19 1   
    26   15   27 1   
    27   16   17 1   
    28   16   28 1   
    29   17   18 2   
    30   17   29 1   
    31   19   20 2   
    32   19   30 1   
@<TRIPOS>SUBSTRUCTURE
     1 2TV         1 TEMP              0 ****  ****    0 ROOT
