@<TRIPOS>MOLECULE
2TV
   32    32     1     0     0
SMALL
bcc


@<TRIPOS>ATOM
      1 CAB         0.4380   -0.7180   -0.2370 c3        1 2TV     -0.150100
      2 CAP         1.9140   -0.6350   -0.0890 c         1 2TV      0.645100
      3 OAD         2.6280   -0.8950    0.8730 o         1 2TV     -0.502000
      4 OAN         2.5210   -0.1960   -1.2600 os        1 2TV     -0.374200
      5 CAI         3.8900   -0.0080   -1.2620 c2        1 2TV      0.108100
      6 CAR         4.4880    0.3020   -2.4340 ce        1 2TV     -0.283800
      7 CAJ         3.7500    0.4580   -3.7050 c3        1 2TV      0.057900
      8 SAO         4.5270   -0.3990   -5.0450 ss        1 2TV     -0.367200
      9 CAS         5.9400    0.5350   -2.4910 ce        1 2TV      0.457600
     10 CAQ         6.5710    0.9800   -1.1930 c         1 2TV      0.552800
     11 OAF         7.5680    0.2370   -0.6540 oh        1 2TV     -0.568100
     12 OAE         6.2390    1.9660   -0.5390 o         1 2TV     -0.478000
     13 NAL         6.7130    0.4270   -3.5180 n2        1 2TV     -0.564900
     14 CAU         6.2870   -0.0410   -4.7950 c3        1 2TV      0.201600
     15 CAV         7.0140   -1.3720   -5.1980 c3        1 2TV     -0.001300
     16 NAK         8.4400   -1.3370   -5.0220 n         1 2TV     -0.559900
     17 CAH         9.0510   -1.5580   -3.8120 c         1 2TV      0.682900
     18 OAC         8.4350   -1.8890   -2.7820 o         1 2TV     -0.633100
     19 CAT         6.5920   -1.6700   -6.6360 c         1 2TV      0.558900
     20 OAG         7.3570   -1.6190   -7.5950 o         1 2TV     -0.508100
     21 H1         -0.0330    0.0190    0.4610 hc        1 2TV      0.085033
     22 H2          0.1050   -1.7490    0.0400 hc        1 2TV      0.085033
     23 H3          0.1220   -0.4910   -1.2840 hc        1 2TV      0.085033
     24 H7          2.7180    0.0270   -3.6340 h1        1 2TV      0.093200
     25 H8          3.6550    1.5450   -3.9560 h1        1 2TV      0.093200
     26 H10         6.5660    0.7650   -5.5350 h2        1 2TV      0.106700
     27 H11         6.6040   -2.1970   -4.5350 h1        1 2TV      0.113700
     28 H12         7.8180   -0.4990   -1.2410 ho        1 2TV      0.469000
     29 H13        10.1600   -1.4460   -3.8420 h5        1 2TV      0.041200
     30 H14         5.5140   -1.9380   -6.7370 h4        1 2TV      0.038200
     31 H4          4.4100   -0.1100   -0.2930 h4        1 2TV      0.187000
     32 HAK2        8.9720   -0.9870   -5.7870 hn        1 2TV      0.328500
@<TRIPOS>BOND
     1    1    2 1   
     2    1   21 1   
     3    1   22 1   
     4    1   23 1   
     5    2    3 2   
     6    2    4 1   
     7    4    5 1   
     8    5    6 2   
     9    5   31 1   
    10    6    7 1   
    11    6    9 1   
    12    7    8 1   
    13    7   24 1   
    14    7   25 1   
    15    8   14 1   
    16    9   10 1   
    17    9   13 2   
    18   10   11 1   
    19   10   12 2   
    20   11   28 1   
    21   13   14 1   
    22   14   15 1   
    23   14   26 1   
    24   15   16 1   
    25   15   19 1   
    26   15   27 1   
    27   16   17 1   
    28   16   32 1   
    29   17   18 2   
    30   17   29 1   
    31   19   20 2   
    32   19   30 1   
@<TRIPOS>SUBSTRUCTURE
     1 2TV         1 TEMP              0 ****  ****    0 ROOT
