@<TRIPOS>MOLECULE
2TW
   67    70     1     0     0
SMALL
bcc


@<TRIPOS>ATOM
      1 C14         0.0010    0.0590    1.0920 ca        1 2TW     -0.092000
      2 C13         1.2990    0.1830    1.5940 ca        1 2TW      0.012400
      3 CL2         2.6290    0.0390    0.5360 cl        1 2TW     -0.117400
      4 C12         1.5280    0.4190    2.9530 ca        1 2TW     -0.131000
      5 C11         0.4390    0.5270    3.8160 ca        1 2TW     -0.137000
      6 C10        -0.8620    0.4160    3.3260 ca        1 2TW     -0.104000
      7 C9         -1.0860    0.1930    1.9640 ca        1 2TW     -0.053300
      8 C8         -2.4810    0.0740    1.4160 c3        1 2TW      0.147400
      9 O1         -3.2240   -0.7030    2.3570 os        1 2TW     -0.395600
     10 C23        -4.5990   -0.8270    2.0230 c3        1 2TW      0.118100
     11 C25        -4.9550   -1.4640    0.6910 c3        1 2TW     -0.237400
     12 C26        -3.9190   -2.4610    0.1290 c         1 2TW      0.923600
     13 O4         -3.9170   -3.6410    0.5610 o         1 2TW     -0.832300
     14 O3         -3.1590   -2.0230   -0.7880 o         1 2TW     -0.832300
     15 C24        -5.2370    0.5700    2.0600 c         1 2TW      0.672500
     16 O2         -6.3770    0.7450    2.5410 o         1 2TW     -0.682500
     17 N1         -4.5030    1.6320    1.5450 n         1 2TW     -0.472800
     18 C15        -5.1370    2.9160    1.2980 c3        1 2TW      0.194700
     19 C16        -6.3620    2.8080    0.4050 cx        1 2TW     -0.140700
     20 C22        -6.1890    2.6470   -1.0790 cx        1 2TW     -0.130900
     21 C27        -6.6790    3.9500   -0.5230 cx        1 2TW     -0.130900
     22 C17        -5.5790    3.6470    2.5880 c3        1 2TW     -0.361600
     23 S1         -4.3560    4.4620    3.4350 s6        1 2TW      1.283000
     24 O5         -3.0970    4.2760    2.8310 o         1 2TW     -0.661300
     25 O6         -4.7570    5.8090    3.5920 o         1 2TW     -0.661300
     26 C18        -4.3650    3.7090    5.0150 c3        1 2TW     -0.224200
     27 C20        -4.0560    2.2270    4.9390 c3        1 2TW     -0.081433
     28 C21        -3.2670    4.3960    5.8160 c3        1 2TW     -0.081433
     29 C19        -5.6890    3.9190    5.7230 c3        1 2TW     -0.081433
     30 C7         -3.0870    1.5020    1.2120 c3        1 2TW      0.130000
     31 C5         -2.7540    1.9680   -0.1900 ca        1 2TW     -0.112300
     32 C4         -2.1740    3.2350   -0.3440 ca        1 2TW     -0.107000
     33 C3         -1.8320    3.7080   -1.6080 ca        1 2TW     -0.140000
     34 C2         -2.0780    2.9070   -2.7280 ca        1 2TW      0.017400
     35 CL1        -1.6670    3.4840   -4.2800 cl        1 2TW     -0.126400
     36 C1         -2.6520    1.6420   -2.5870 ca        1 2TW     -0.140000
     37 C6         -2.9900    1.1720   -1.3160 ca        1 2TW     -0.107000
     38 H1         -0.1720   -0.1560    0.0250 ha        1 2TW      0.169000
     39 H2          2.5530    0.5110    3.3380 ha        1 2TW      0.133000
     40 H3          0.6090    0.6990    4.8880 ha        1 2TW      0.124000
     41 H4         -1.7230    0.4800    4.0090 ha        1 2TW      0.142000
     42 H5         -2.4630   -0.4960    0.4350 h1        1 2TW      0.148700
     43 H6         -5.0060   -1.4440    2.8760 h1        1 2TW      0.099700
     44 H7         -5.9220   -2.0130    0.8270 hc        1 2TW      0.044200
     45 H8         -5.1120   -0.6730   -0.0860 hc        1 2TW      0.044200
     46 H10        -4.3740    3.5790    0.7830 h1        1 2TW      0.074700
     47 H11        -7.1960    2.2700    0.9020 hc        1 2TW      0.108700
     48 H12        -5.1640    2.5840   -1.4930 hc        1 2TW      0.072200
     49 H13        -6.8920    1.9930   -1.6250 hc        1 2TW      0.072200
     50 H14        -6.0100    4.8280   -0.5460 hc        1 2TW      0.072200
     51 H15        -7.7360    4.2350   -0.6680 hc        1 2TW      0.072200
     52 H16        -6.3540    4.4020    2.2650 h1        1 2TW      0.142200
     53 H17        -6.1570    2.9030    3.2050 h1        1 2TW      0.142200
     54 H18        -3.1220    2.0600    4.3440 hc        1 2TW      0.053033
     55 H19        -3.9030    1.8110    5.9630 hc        1 2TW      0.053033
     56 H20        -4.8960    1.6640    4.4580 hc        1 2TW      0.053033
     57 H21        -3.4820    5.4900    5.9040 hc        1 2TW      0.053033
     58 H22        -2.2780    4.2520    5.3160 hc        1 2TW      0.053033
     59 H23        -3.2100    3.9630    6.8430 hc        1 2TW      0.053033
     60 H24        -5.6070    3.6050    6.7910 hc        1 2TW      0.053033
     61 H25        -6.4980    3.3110    5.2490 hc        1 2TW      0.053033
     62 H26        -5.9750    5.0000    5.6920 hc        1 2TW      0.053033
     63 H27        -2.5500    2.1990    1.9380 h1        1 2TW      0.076700
     64 H28        -1.9850    3.8610    0.5470 ha        1 2TW      0.185500
     65 H29        -1.3720    4.7000   -1.7210 ha        1 2TW      0.144500
     66 H30        -2.8310    1.0050   -3.4660 ha        1 2TW      0.144500
     67 H31        -3.4130    0.1470   -1.2170 ha        1 2TW      0.185500
@<TRIPOS>BOND
     1    1    2 ar  
     2    1    7 ar  
     3    1   38 1   
     4    2    3 1   
     5    2    4 ar  
     6    4    5 ar  
     7    4   39 1   
     8    5    6 ar  
     9    5   40 1   
    10    6    7 ar  
    11    6   41 1   
    12    7    8 1   
    13    8    9 1   
    14    8   30 1   
    15    8   42 1   
    16    9   10 1   
    17   10   11 1   
    18   10   15 1   
    19   10   43 1   
    20   11   12 1   
    21   11   44 1   
    22   11   45 1   
    23   12   13 1   
    24   12   14 1   
    25   15   16 2   
    26   15   17 1   
    27   17   18 1   
    28   17   30 1   
    29   18   19 1   
    30   18   22 1   
    31   18   46 1   
    32   19   20 1   
    33   19   21 1   
    34   19   47 1   
    35   20   21 1   
    36   20   48 1   
    37   20   49 1   
    38   21   50 1   
    39   21   51 1   
    40   22   23 1   
    41   22   52 1   
    42   22   53 1   
    43   23   24 2   
    44   23   25 2   
    45   23   26 1   
    46   26   27 1   
    47   26   28 1   
    48   26   29 1   
    49   27   54 1   
    50   27   55 1   
    51   27   56 1   
    52   28   57 1   
    53   28   58 1   
    54   28   59 1   
    55   29   60 1   
    56   29   61 1   
    57   29   62 1   
    58   30   31 1   
    59   30   63 1   
    60   31   32 ar  
    61   31   37 ar  
    62   32   33 ar  
    63   32   64 1   
    64   33   34 ar  
    65   33   65 1   
    66   34   35 1   
    67   34   36 ar  
    68   36   37 ar  
    69   36   66 1   
    70   37   67 1   
@<TRIPOS>SUBSTRUCTURE
     1 2TW         1 TEMP              0 ****  ****    0 ROOT
