@<TRIPOS>MOLECULE
2TW
   67    70     1     0     0
SMALL
bcc


@<TRIPOS>ATOM
      1 C14        -0.0160    0.0340    1.1100 ca        1 2TW     -0.093000
      2 C13         1.2820    0.1520    1.6130 ca        1 2TW      0.012400
      3 CL2         2.6130   -0.0010    0.5570 cl        1 2TW     -0.117400
      4 C12         1.5100    0.3880    2.9720 ca        1 2TW     -0.131000
      5 C11         0.4200    0.5030    3.8330 ca        1 2TW     -0.136000
      6 C10        -0.8800    0.3980    3.3420 ca        1 2TW     -0.104000
      7 C9         -1.1030    0.1750    1.9800 ca        1 2TW     -0.053300
      8 C8         -2.4980    0.0620    1.4300 c3        1 2TW      0.147400
      9 O1         -3.2500   -0.7010    2.3760 os        1 2TW     -0.395600
     10 C23        -4.6250   -0.8150    2.0410 c3        1 2TW      0.118100
     11 C25        -4.9850   -1.4600    0.7130 c3        1 2TW     -0.237400
     12 C26        -3.9570   -2.4700    0.1610 c         1 2TW      0.923600
     13 O4         -3.9670   -3.6460    0.6010 o         1 2TW     -0.832300
     14 O3         -3.1920   -2.0460   -0.7590 o         1 2TW     -0.832300
     15 C24        -5.2500    0.5880    2.0660 c         1 2TW      0.672500
     16 O2         -6.3900    0.7760    2.5450 o         1 2TW     -0.682500
     17 N1         -4.5070    1.6390    1.5440 n         1 2TW     -0.472800
     18 C15        -5.1290    2.9270    1.2880 c3        1 2TW      0.194700
     19 C16        -6.3560    2.8230    0.3950 cx        1 2TW     -0.140700
     20 C22        -6.1830    2.6490   -1.0880 cx        1 2TW     -0.130900
     21 C27        -6.6610    3.9610   -0.5420 cx        1 2TW     -0.130900
     22 C17        -5.5640    3.6720    2.5720 c3        1 2TW     -0.361600
     23 S1         -4.3340    4.4830    3.4120 s6        1 2TW      1.283000
     24 O5         -3.0770    4.2830    2.8070 o         1 2TW     -0.661300
     25 O6         -4.7240    5.8340    3.5600 o         1 2TW     -0.661300
     26 C18        -4.3460    3.7400    4.9970 c3        1 2TW     -0.224200
     27 C20        -4.0500    2.2550    4.9300 c3        1 2TW     -0.081433
     28 C21        -3.2420    4.4240    5.7920 c3        1 2TW     -0.081433
     29 C19        -5.6680    3.9660    5.7050 c3        1 2TW     -0.081433
     30 C7         -3.0910    1.4940    1.2130 c3        1 2TW      0.130000
     31 C5         -2.7550    1.9450   -0.1930 ca        1 2TW     -0.112300
     32 C4         -2.1640    3.2060   -0.3580 ca        1 2TW     -0.107000
     33 C3         -1.8180    3.6650   -1.6260 ca        1 2TW     -0.140000
     34 C2         -2.0700    2.8570   -2.7390 ca        1 2TW      0.017400
     35 CL1        -1.6540    3.4180   -4.2950 cl        1 2TW     -0.126400
     36 C1         -2.6540    1.5980   -2.5870 ca        1 2TW     -0.140000
     37 C6         -2.9960    1.1420   -1.3130 ca        1 2TW     -0.107000
     38 H1         -0.1890   -0.1810    0.0420 ha        1 2TW      0.169000
     39 H2          2.5350    0.4750    3.3590 ha        1 2TW      0.133000
     40 H3          0.5900    0.6750    4.9060 ha        1 2TW      0.124000
     41 H4         -1.7420    0.4690    4.0230 ha        1 2TW      0.142000
     42 H5         -2.4830   -0.5150    0.4530 h1        1 2TW      0.148700
     43 H6         -5.0390   -1.4220    2.8970 h1        1 2TW      0.099700
     44 H7         -5.9570   -1.9980    0.8520 hc        1 2TW      0.044200
     45 H8         -5.1340   -0.6730   -0.0700 hc        1 2TW      0.044200
     46 H10        -4.3600    3.5800    0.7670 h1        1 2TW      0.074700
     47 H11        -7.1940    2.2980    0.8960 hc        1 2TW      0.108700
     48 H12        -5.1590    2.5720   -1.5010 hc        1 2TW      0.072200
     49 H13        -6.8930    1.9970   -1.6280 hc        1 2TW      0.072200
     50 H14        -5.9830    4.8320   -0.5730 hc        1 2TW      0.072200
     51 H15        -7.7150    4.2550   -0.6900 hc        1 2TW      0.072200
     52 H16        -6.1480    2.9380    3.1950 h1        1 2TW      0.142200
     53 H17        -6.3320    4.4310    2.2440 h1        1 2TW      0.142200
     54 H18        -3.1180    2.0770    4.3350 hc        1 2TW      0.053144
     55 H19        -4.8950    1.6960    4.4550 hc        1 2TW      0.053144
     56 H20        -3.8980    1.8450    5.9570 hc        1 2TW      0.053144
     57 H21        -3.4480    5.5200    5.8720 hc        1 2TW      0.053144
     58 H22        -3.1860    3.9980    6.8220 hc        1 2TW      0.053144
     59 H23        -2.2540    4.2680    5.2910 hc        1 2TW      0.053144
     60 H24        -6.4820    3.3610    5.2370 hc        1 2TW      0.053144
     61 H25        -5.5860    3.6590    6.7760 hc        1 2TW      0.053144
     62 H26        -5.9450    5.0490    5.6680 hc        1 2TW      0.053144
     63 H27        -2.5490    2.1930    1.9320 h1        1 2TW      0.076700
     64 H28        -1.9710    3.8380    0.5270 ha        1 2TW      0.186000
     65 H29        -1.3490    4.6520   -1.7470 ha        1 2TW      0.144500
     66 H30        -2.8380    0.9540   -3.4610 ha        1 2TW      0.144500
     67 H31        -3.4280    0.1210   -1.2050 ha        1 2TW      0.186000
@<TRIPOS>BOND
     1    1    2 ar  
     2    1    7 ar  
     3    1   38 1   
     4    2    3 1   
     5    2    4 ar  
     6    4    5 ar  
     7    4   39 1   
     8    5    6 ar  
     9    5   40 1   
    10    6    7 ar  
    11    6   41 1   
    12    7    8 1   
    13    8    9 1   
    14    8   30 1   
    15    8   42 1   
    16    9   10 1   
    17   10   11 1   
    18   10   15 1   
    19   10   43 1   
    20   11   12 1   
    21   11   44 1   
    22   11   45 1   
    23   12   13 1   
    24   12   14 1   
    25   15   16 2   
    26   15   17 1   
    27   17   18 1   
    28   17   30 1   
    29   18   19 1   
    30   18   22 1   
    31   18   46 1   
    32   19   20 1   
    33   19   21 1   
    34   19   47 1   
    35   20   21 1   
    36   20   48 1   
    37   20   49 1   
    38   21   50 1   
    39   21   51 1   
    40   22   23 1   
    41   22   52 1   
    42   22   53 1   
    43   23   24 2   
    44   23   25 2   
    45   23   26 1   
    46   26   27 1   
    47   26   28 1   
    48   26   29 1   
    49   27   54 1   
    50   27   55 1   
    51   27   56 1   
    52   28   57 1   
    53   28   58 1   
    54   28   59 1   
    55   29   60 1   
    56   29   61 1   
    57   29   62 1   
    58   30   31 1   
    59   30   63 1   
    60   31   32 ar  
    61   31   37 ar  
    62   32   33 ar  
    63   32   64 1   
    64   33   34 ar  
    65   33   65 1   
    66   34   35 1   
    67   34   36 ar  
    68   36   37 ar  
    69   36   66 1   
    70   37   67 1   
@<TRIPOS>SUBSTRUCTURE
     1 2TW         1 TEMP              0 ****  ****    0 ROOT
