@<TRIPOS>MOLECULE
2TW
   67    70     1     0     0
SMALL
bcc


@<TRIPOS>ATOM
      1 C14         0.0050   -0.4330    1.3570 ca        1 2TW     -0.086000
      2 C13         1.3140   -0.3150    1.8290 ca        1 2TW      0.006400
      3 Cl2         2.5470   -1.2820    1.1540 cl        1 2TW     -0.117400
      4 C12         1.6330    0.5830    2.8520 ca        1 2TW     -0.132000
      5 C11         0.6230    1.3680    3.4050 ca        1 2TW     -0.140000
      6 C10        -0.6880    1.2650    2.9400 ca        1 2TW     -0.108000
      7 C9         -0.9990    0.3740    1.9080 ca        1 2TW     -0.062300
      8 C8         -2.3960    0.2220    1.3710 c3        1 2TW      0.149400
      9 O1         -3.1340   -0.4810    2.3740 os        1 2TW     -0.390600
     10 C23        -4.5020   -0.6650    2.0390 c3        1 2TW      0.116100
     11 C25        -4.8310   -1.4490    0.7820 c3        1 2TW     -0.235400
     12 C26        -3.7740   -2.4900    0.3590 c         1 2TW      0.922600
     13 O4         -3.7960   -3.6250    0.8980 o         1 2TW     -0.833300
     14 O3         -2.9690   -2.1410   -0.5590 o         1 2TW     -0.833300
     15 C24        -5.1700    0.7140    1.9410 c         1 2TW      0.671500
     16 O2         -6.3470    0.8840    2.3310 o         1 2TW     -0.687500
     17 N1         -4.4170    1.7710    1.4480 n         1 2TW     -0.466800
     18 C15        -4.9910    3.1010    1.3230 c3        1 2TW      0.199700
     19 C16        -6.1930    3.1530    0.3950 cx        1 2TW     -0.137700
     20 C22        -5.9790    3.3160   -1.0840 cx        1 2TW     -0.132400
     21 C27        -6.5210    4.4590   -0.2790 cx        1 2TW     -0.132400
     22 C17        -5.4360    3.7040    2.6760 c3        1 2TW     -0.361600
     23 S1         -4.2020    4.2380    3.7130 s6        1 2TW      1.283000
     24 O5         -2.9250    3.8810    3.2390 o         1 2TW     -0.661800
     25 O6         -4.3970    5.6210    3.9340 o         1 2TW     -0.661800
     26 C18        -4.5190    3.3980    5.2140 c3        1 2TW     -0.224200
     27 C20        -4.3970    1.8930    5.0620 c3        1 2TW     -0.082433
     28 C21        -3.4550    3.8740    6.1950 c3        1 2TW     -0.082433
     29 C19        -5.8860    3.7470    5.7710 c3        1 2TW     -0.082433
     30 C7         -3.0280    1.6070    1.0250 c3        1 2TW      0.123000
     31 C5         -2.8180    1.8990   -0.4490 ca        1 2TW     -0.104300
     32 C4         -2.3310    3.1640   -0.8070 ca        1 2TW     -0.107500
     33 C3         -2.1170    3.4950   -2.1420 ca        1 2TW     -0.137500
     34 C2         -2.3900    2.5480   -3.1330 ca        1 2TW      0.016400
     35 Cl1        -2.1380    2.9500   -4.7720 cl        1 2TW     -0.126400
     36 C1         -2.8600    1.2780   -2.7910 ca        1 2TW     -0.137500
     37 C6         -3.0720    0.9550   -1.4500 ca        1 2TW     -0.107500
     38 H1         -0.2510   -1.1620    0.5660 ha        1 2TW      0.184000
     39 H2          2.6660    0.6680    3.2180 ha        1 2TW      0.131000
     40 H3          0.8620    2.0740    4.2130 ha        1 2TW      0.125000
     41 H4         -1.4770    1.8950    3.3860 ha        1 2TW      0.155000
     42 H5         -2.3700   -0.4340    0.4440 h1        1 2TW      0.142700
     43 H6         -4.9070   -1.2000    2.9470 h1        1 2TW      0.099700
     44 H7         -5.7950   -1.9900    0.9640 hc        1 2TW      0.044200
     45 H8         -4.9890   -0.7490   -0.0790 hc        1 2TW      0.044200
     46 H10        -4.1840    3.7790    0.9010 h1        1 2TW      0.064700
     47 H11        -7.0230    2.5070    0.7470 hc        1 2TW      0.112700
     48 H12        -6.6490    2.7780   -1.7780 hc        1 2TW      0.070950
     49 H13        -4.9430    3.3700   -1.4690 hc        1 2TW      0.070950
     50 H14        -5.8780    5.3380   -0.0950 hc        1 2TW      0.070950
     51 H15        -7.5820    4.7440   -0.3910 hc        1 2TW      0.070950
     52 H16        -6.1380    2.9560    3.1460 h1        1 2TW      0.142200
     53 H17        -6.0940    4.5820    2.4160 h1        1 2TW      0.142200
     54 H18        -5.2280    1.4820    4.4340 hc        1 2TW      0.054144
     55 H19        -3.4200    1.6280    4.5850 hc        1 2TW      0.054144
     56 H20        -4.4450    1.4010    6.0630 hc        1 2TW      0.054144
     57 H21        -3.5920    3.3780    7.1850 hc        1 2TW      0.054144
     58 H22        -2.4370    3.6190    5.8090 hc        1 2TW      0.054144
     59 H23        -3.5310    4.9810    6.3380 hc        1 2TW      0.054144
     60 H24        -6.6980    3.2880    5.1560 hc        1 2TW      0.054144
     61 H25        -6.0210    4.8570    5.7920 hc        1 2TW      0.054144
     62 H26        -5.9850    3.3580    6.8130 hc        1 2TW      0.054144
     63 H27        -2.4480    2.4000    1.6020 h1        1 2TW      0.087700
     64 H28        -2.0990    3.9050   -0.0250 ha        1 2TW      0.175500
     65 H29        -1.7320    4.4890   -2.4100 ha        1 2TW      0.143500
     66 H30        -3.0540    0.5230   -3.5680 ha        1 2TW      0.143500
     67 H31        -3.4090   -0.0770   -1.2000 ha        1 2TW      0.175500
@<TRIPOS>BOND
     1    1    2 ar  
     2    1    7 ar  
     3    1   38 1   
     4    2    3 1   
     5    2    4 ar  
     6    4    5 ar  
     7    4   39 1   
     8    5    6 ar  
     9    5   40 1   
    10    6    7 ar  
    11    6   41 1   
    12    7    8 1   
    13    8    9 1   
    14    8   30 1   
    15    8   42 1   
    16    9   10 1   
    17   10   11 1   
    18   10   15 1   
    19   10   43 1   
    20   11   12 1   
    21   11   44 1   
    22   11   45 1   
    23   12   13 1   
    24   12   14 1   
    25   15   16 2   
    26   15   17 1   
    27   17   18 1   
    28   17   30 1   
    29   18   19 1   
    30   18   22 1   
    31   18   46 1   
    32   19   20 1   
    33   19   21 1   
    34   19   47 1   
    35   20   21 1   
    36   20   48 1   
    37   20   49 1   
    38   21   50 1   
    39   21   51 1   
    40   22   23 1   
    41   22   52 1   
    42   22   53 1   
    43   23   24 2   
    44   23   25 2   
    45   23   26 1   
    46   26   27 1   
    47   26   28 1   
    48   26   29 1   
    49   27   54 1   
    50   27   55 1   
    51   27   56 1   
    52   28   57 1   
    53   28   58 1   
    54   28   59 1   
    55   29   60 1   
    56   29   61 1   
    57   29   62 1   
    58   30   31 1   
    59   30   63 1   
    60   31   32 ar  
    61   31   37 ar  
    62   32   33 ar  
    63   32   64 1   
    64   33   34 ar  
    65   33   65 1   
    66   34   35 1   
    67   34   36 ar  
    68   36   37 ar  
    69   36   66 1   
    70   37   67 1   
@<TRIPOS>SUBSTRUCTURE
     1 2TW         1 TEMP              0 ****  ****    0 ROOT
