@<TRIPOS>MOLECULE
2TX
   81    81     1     0     0
SMALL
bcc


@<TRIPOS>ATOM
      1 CBA         0.7190    1.6470    2.9460 c3        1 2TX     -0.083100
      2 CAY         1.6960    2.5350    2.2380 cx        1 2TX      0.074800
      3 CBB         2.9230    2.8650    3.0280 c3        1 2TX     -0.083100
      4 OAZ         1.1070    3.6390    1.5180 os        1 2TX     -0.405600
      5 CAX         1.7020    2.5850    0.7420 cx        1 2TX      0.068100
      6 CAW         2.9340    2.9440   -0.0320 c3        1 2TX     -0.073400
      7 CAV         2.7080    2.8030   -1.5270 c3        1 2TX     -0.038200
      8 CAT         3.9070    3.2270   -2.3040 c2        1 2TX     -0.124400
      9 CAU         4.2270    4.6750   -2.2880 c3        1 2TX     -0.060900
     10 CAS         4.6480    2.3400   -2.9870 c2        1 2TX     -0.173200
     11 CAR         5.8350    2.7150   -3.7900 c3        1 2TX     -0.044200
     12 CAQ         6.5780    1.4980   -4.3100 c3        1 2TX     -0.038200
     13 CAO         7.7380    1.8860   -5.1620 c2        1 2TX     -0.124400
     14 CAP         7.4200    2.5040   -6.4710 c3        1 2TX     -0.058900
     15 CAN         9.0020    1.6740   -4.7610 c2        1 2TX     -0.173200
     16 CAM        10.1870    2.0240   -5.5780 c3        1 2TX     -0.045200
     17 CAL        11.4820    1.8510   -4.8080 c3        1 2TX     -0.044200
     18 CAK        12.6660    2.2060   -5.6230 c2        1 2TX     -0.174200
     19 CAJ        13.9110    2.2840   -5.1260 c2        1 2TX     -0.123400
     20 CBC        14.2060    2.0250   -3.6960 c3        1 2TX     -0.058900
     21 CAI        15.0740    2.6270   -5.9930 c3        1 2TX     -0.039200
     22 CAH        15.6460    3.9900   -5.6480 c3        1 2TX     -0.043200
     23 CAG        16.8360    4.3160   -6.4680 c2        1 2TX     -0.174200
     24 CAF        17.4330    5.5190   -6.4600 c2        1 2TX     -0.123400
     25 CBD        16.9380    6.6380   -5.6230 c3        1 2TX     -0.058900
     26 CAE        18.6400    5.7920   -7.2900 c3        1 2TX     -0.038200
     27 CAD        18.3390    6.7730   -8.4100 c3        1 2TX     -0.043200
     28 CAC        19.5460    7.0930   -9.2070 c2        1 2TX     -0.177200
     29 CAB        19.5170    7.8390  -10.3230 c2        1 2TX     -0.124400
     30 CBE        18.2570    8.4030  -10.8640 c3        1 2TX     -0.057900
     31 CAA        20.7470    8.1430  -11.0920 c3        1 2TX     -0.057900
     32 H1          0.4000    2.1190    3.9060 hc        1 2TX      0.048867
     33 H2          1.2000    0.6640    3.1680 hc        1 2TX      0.048867
     34 H3         -0.1890    1.4760    2.3180 hc        1 2TX      0.048867
     35 H4          3.5500    3.6190    2.4940 hc        1 2TX      0.048867
     36 H5          2.6360    3.2840    4.0230 hc        1 2TX      0.048867
     37 H6          3.5260    1.9380    3.1870 hc        1 2TX      0.048867
     38 H7          0.9610    1.9750    0.1840 h1        1 2TX      0.085700
     39 H8          3.7730    2.2710    0.2890 hc        1 2TX      0.059200
     40 H9          3.2380    4.0000    0.2030 hc        1 2TX      0.059200
     41 H10         1.8310    3.4360   -1.8310 hc        1 2TX      0.048200
     42 H11         2.4460    1.7360   -1.7630 hc        1 2TX      0.048200
     43 H13         5.1710    4.8550   -1.7140 hc        1 2TX      0.042700
     44 H14         3.4070    5.2690   -1.8150 hc        1 2TX      0.042700
     45 H15         4.3810    5.0520   -3.3310 hc        1 2TX      0.042700
     46 H16         4.3870    1.2690   -2.9800 ha        1 2TX      0.122000
     47 H18         6.5300    3.3420   -3.1670 hc        1 2TX      0.051200
     48 H19         5.5130    3.3560   -4.6570 hc        1 2TX      0.051200
     49 H20         5.8770    0.8630   -4.9160 hc        1 2TX      0.046200
     50 H21         6.9210    0.8760   -3.4410 hc        1 2TX      0.046200
     51 H22         7.7020    3.5880   -6.4640 hc        1 2TX      0.041367
     52 H23         7.9960    2.0040   -7.2910 hc        1 2TX      0.041367
     53 H24         6.3310    2.4260   -6.7060 hc        1 2TX      0.041367
     54 H25         9.2090    1.2140   -3.7810 ha        1 2TX      0.122000
     55 H26        10.2080    1.3760   -6.4980 hc        1 2TX      0.049200
     56 H27        10.1010    3.0870   -5.9340 hc        1 2TX      0.049200
     57 H28        11.5750    0.7840   -4.4630 hc        1 2TX      0.048700
     58 H29        11.4550    2.4880   -3.8810 hc        1 2TX      0.048700
     59 H30        12.4770    2.4050   -6.6910 ha        1 2TX      0.123000
     60 H33        13.7980    2.8540   -3.0630 hc        1 2TX      0.041367
     61 H34        15.3050    1.9510   -3.5120 hc        1 2TX      0.041367
     62 H35        13.7250    1.0710   -3.3630 hc        1 2TX      0.041367
     63 H36        15.8700    1.8440   -5.8630 hc        1 2TX      0.046200
     64 H37        14.7730    2.6160   -7.0740 hc        1 2TX      0.046200
     65 H38        14.8570    4.7770   -5.7960 hc        1 2TX      0.050200
     66 H39        15.9250    4.0140   -4.5580 hc        1 2TX      0.050200
     67 H40        17.2250    3.5020   -7.1020 ha        1 2TX      0.123000
     68 H41        15.9650    7.0190   -6.0270 hc        1 2TX      0.041367
     69 H42        17.6660    7.4860   -5.6030 hc        1 2TX      0.041367
     70 H43        16.7640    6.2950   -4.5720 hc        1 2TX      0.041367
     71 H44        19.4480    6.2130   -6.6320 hc        1 2TX      0.045700
     72 H45        19.0360    4.8390   -7.7320 hc        1 2TX      0.045700
     73 H46        17.9150    7.7200   -7.9740 hc        1 2TX      0.049700
     74 H47        17.5460    6.3430   -9.0810 hc        1 2TX      0.049700
     75 H48        20.4980    6.6840   -8.8320 ha        1 2TX      0.122000
     76 H51        17.5900    7.5800  -11.2250 hc        1 2TX      0.040533
     77 H52        18.4550    9.0970  -11.7170 hc        1 2TX      0.040533
     78 H53        17.7070    8.9660  -10.0680 hc        1 2TX      0.040533
     79 H54        20.9190    9.2480  -11.1200 hc        1 2TX      0.040533
     80 H55        20.6400    7.7810  -12.1460 hc        1 2TX      0.040533
     81 H56        21.6470    7.6570  -10.6420 hc        1 2TX      0.040533
@<TRIPOS>BOND
     1    1    2 1   
     2    1   32 1   
     3    1   33 1   
     4    1   34 1   
     5    2    3 1   
     6    2    4 1   
     7    2    5 1   
     8    3   35 1   
     9    3   36 1   
    10    3   37 1   
    11    4    5 1   
    12    5    6 1   
    13    5   38 1   
    14    6    7 1   
    15    6   39 1   
    16    6   40 1   
    17    7    8 1   
    18    7   41 1   
    19    7   42 1   
    20    8    9 1   
    21    8   10 2   
    22    9   43 1   
    23    9   44 1   
    24    9   45 1   
    25   10   11 1   
    26   10   46 1   
    27   11   12 1   
    28   11   47 1   
    29   11   48 1   
    30   12   13 1   
    31   12   49 1   
    32   12   50 1   
    33   13   14 1   
    34   13   15 2   
    35   14   51 1   
    36   14   52 1   
    37   14   53 1   
    38   15   16 1   
    39   15   54 1   
    40   16   17 1   
    41   16   55 1   
    42   16   56 1   
    43   17   18 1   
    44   17   57 1   
    45   17   58 1   
    46   18   19 2   
    47   18   59 1   
    48   19   20 1   
    49   19   21 1   
    50   20   60 1   
    51   20   61 1   
    52   20   62 1   
    53   21   22 1   
    54   21   63 1   
    55   21   64 1   
    56   22   23 1   
    57   22   65 1   
    58   22   66 1   
    59   23   24 2   
    60   23   67 1   
    61   24   25 1   
    62   24   26 1   
    63   25   68 1   
    64   25   69 1   
    65   25   70 1   
    66   26   27 1   
    67   26   71 1   
    68   26   72 1   
    69   27   28 1   
    70   27   73 1   
    71   27   74 1   
    72   28   29 2   
    73   28   75 1   
    74   29   30 1   
    75   29   31 1   
    76   30   76 1   
    77   30   77 1   
    78   30   78 1   
    79   31   79 1   
    80   31   80 1   
    81   31   81 1   
@<TRIPOS>SUBSTRUCTURE
     1 2TX         1 TEMP              0 ****  ****    0 ROOT
