@<TRIPOS>MOLECULE
2TY
   40    41     1     0     0
SMALL
bcc


@<TRIPOS>ATOM
      1 N          -0.0250   -2.1620    0.8050 n3        1 2TY     -0.895800
      2 CA          1.0750   -2.1970    1.7620 c3        1 2TY      0.026500
      3 CB          1.7440   -0.8120    1.8940 c3        1 2TY     -0.013100
      4 C           0.6240   -2.6930    3.1760 c         1 2TY      0.885600
      5 O          -0.4940   -2.3000    3.6090 o         1 2TY     -0.846800
      6 CG          3.2190   -0.9340    2.0710 ca        1 2TY     -0.161300
      7 CD1         4.1780   -0.4220    1.1790 ca        1 2TY      0.146100
      8 OX1         3.8660    0.2840    0.0370 oh        1 2TY     -0.519100
      9 CE1         5.5510   -0.5840    1.4210 ca        1 2TY     -0.210000
     10 CD2         3.6730   -1.6340    3.1880 ca        1 2TY     -0.077000
     11 CE2         5.0350   -1.8920    3.4270 ca        1 2TY      0.009400
     12 NX1         5.4670   -2.6870    4.5180 ne        1 2TY     -0.611100
     13 CZ          5.9760   -1.3130    2.5380 ca        1 2TY      0.164100
     14 OH          7.3410   -1.4420    2.6750 oh        1 2TY     -0.516100
     15 C1'         4.2890   -5.7550    6.1350 ca        1 2TY     -0.084300
     16 C6'         2.9380   -5.8740    5.7810 ca        1 2TY     -0.122500
     17 C5'         2.3230   -7.1260    5.7960 ca        1 2TY     -0.136000
     18 C4'         3.0400   -8.2630    6.1640 ca        1 2TY     -0.143000
     19 C3'         4.3850   -8.1490    6.5160 ca        1 2TY     -0.136000
     20 C2'         5.0060   -6.9020    6.5000 ca        1 2TY     -0.122500
     21 C2          4.9730   -4.4310    6.1700 c3        1 2TY     -0.087400
     22 C1          4.6590   -3.5940    4.9660 c2        1 2TY      0.425200
     23 OXT         1.3900   -3.4790    3.8110 o         1 2TY     -0.846800
     24 H          -0.3980   -3.0920    0.7330 hn        1 2TY      0.335300
     25 H2         -0.7550   -1.5870    1.1910 hn        1 2TY      0.335300
     26 HA          1.8370   -2.9300    1.3710 h1        1 2TY      0.053700
     27 HB2         1.5000   -0.1680    1.0100 hc        1 2TY      0.043200
     28 HB3         1.3090   -0.2970    2.7940 hc        1 2TY      0.043200
     29 HX1         2.9350    0.1180   -0.1710 ho        1 2TY      0.428000
     30 HE1         6.2880   -0.1540    0.7310 ha        1 2TY      0.149000
     31 HD2         2.9030   -2.0240    3.8880 ha        1 2TY      0.200000
     32 HH          7.5220   -1.9060    3.5040 ho        1 2TY      0.434000
     33 H6'         2.3470   -4.9890    5.4680 ha        1 2TY      0.158000
     34 H5'         1.2640   -7.2080    5.5070 ha        1 2TY      0.127000
     35 H4'         2.5500   -9.2470    6.1730 ha        1 2TY      0.117000
     36 H3'         4.9570   -9.0430    6.8030 ha        1 2TY      0.127000
     37 H2'         6.0680   -6.8190    6.7720 ha        1 2TY      0.158000
     38 H21         6.0810   -4.5730    6.2910 hc        1 2TY      0.059700
     39 H22         4.6100   -3.8650    7.0740 hc        1 2TY      0.059700
     40 H1          3.6540   -3.8020    4.5180 h4        1 2TY      0.046800
@<TRIPOS>BOND
     1    1    2 1   
     2    1   24 1   
     3    1   25 1   
     4    2    3 1   
     5    2    4 1   
     6    2   26 1   
     7    3    6 1   
     8    3   27 1   
     9    3   28 1   
    10    4    5 1   
    11    4   23 1   
    12    6    7 ar  
    13    6   10 ar  
    14    7    8 1   
    15    7    9 ar  
    16    8   29 1   
    17    9   13 ar  
    18    9   30 1   
    19   10   11 ar  
    20   10   31 1   
    21   11   12 1   
    22   11   13 ar  
    23   12   22 2   
    24   13   14 1   
    25   14   32 1   
    26   15   16 ar  
    27   15   20 ar  
    28   15   21 1   
    29   16   17 ar  
    30   16   33 1   
    31   17   18 ar  
    32   17   34 1   
    33   18   19 ar  
    34   18   35 1   
    35   19   20 ar  
    36   19   36 1   
    37   20   37 1   
    38   21   22 1   
    39   21   38 1   
    40   21   39 1   
    41   22   40 1   
@<TRIPOS>SUBSTRUCTURE
     1 2TY         1 TEMP              0 ****  ****    0 ROOT
