@<TRIPOS>MOLECULE
2TZ
   66    68     1     0     0
SMALL
bcc


@<TRIPOS>ATOM
      1 C17        -0.0300   -1.2860    0.0720 ca        1 2TZ     -0.116000
      2 C16         1.3400   -1.5100   -0.0960 ca        1 2TZ     -0.000600
      3 CL2         1.8630   -2.8560   -1.0100 cl        1 2TZ     -0.137400
      4 C15         2.2850   -0.6500    0.4660 ca        1 2TZ     -0.129000
      5 C14         1.8460    0.4560    1.1940 ca        1 2TZ     -0.136000
      6 C13         0.4850    0.6900    1.3780 ca        1 2TZ     -0.083000
      7 C6         -0.4580   -0.2000    0.8380 ca        1 2TZ     -0.057300
      8 C19        -1.9050    0.1160    1.0870 c3        1 2TZ      0.153400
      9 O6         -2.3830    0.7780   -0.0840 os        1 2TZ     -0.385600
     10 C4         -3.6860    1.3120    0.1190 c3        1 2TZ      0.114100
     11 C21        -3.8170    2.3420    1.2260 c3        1 2TZ     -0.233400
     12 C23        -2.5800    3.2610    1.3470 c         1 2TZ      0.925600
     13 O3         -1.6810    2.9160    2.1740 o         1 2TZ     -0.839300
     14 O2         -2.5460    4.3100    0.6540 o         1 2TZ     -0.839300
     15 C5         -4.6520    0.1460    0.3690 c         1 2TZ      0.672500
     16 O1         -5.8360    0.2040   -0.0150 o         1 2TZ     -0.647500
     17 N1         -4.1880   -0.9970    1.0410 n         1 2TZ     -0.472800
     18 C18        -5.0240   -2.1860    1.0260 c3        1 2TZ      0.133700
     19 C20        -5.4870   -2.6310    2.4300 c3        1 2TZ     -0.339600
     20 C26        -2.7800   -1.1430    1.3950 c3        1 2TZ      0.127000
     21 C7         -2.5520   -1.4820    2.8540 ca        1 2TZ     -0.096300
     22 C8         -1.8050   -2.6190    3.1840 ca        1 2TZ     -0.103500
     23 C9         -1.5260   -2.9220    4.5150 ca        1 2TZ     -0.135000
     24 C10        -2.0060   -2.0830    5.5240 ca        1 2TZ      0.012400
     25 CL1        -1.6700   -2.4510    7.1540 cl        1 2TZ     -0.120400
     26 C11        -2.7590   -0.9490    5.2090 ca        1 2TZ     -0.135000
     27 C12        -3.0300   -0.6510    3.8740 ca        1 2TZ     -0.103500
     28 S1         -6.7370   -1.6760    3.0850 s6        1 2TZ      1.306000
     29 O4         -6.2680   -0.4280    3.5060 o         1 2TZ     -0.637800
     30 O5         -7.8670   -1.7320    2.2540 o         1 2TZ     -0.637800
     31 C3         -7.1170   -2.6130    4.5350 c3        1 2TZ     -0.233200
     32 C1         -4.4100   -3.4100    0.3230 c3        1 2TZ     -0.086400
     33 C2         -4.0530   -3.1370   -1.1150 c3        1 2TZ     -0.098100
     34 C22        -7.7470   -3.9490    4.1960 c3        1 2TZ     -0.075767
     35 C24        -5.8970   -2.8280    5.4080 c3        1 2TZ     -0.075767
     36 C25        -8.1310   -1.7790    5.3070 c3        1 2TZ     -0.075767
     37 H1         -0.7570   -1.9520   -0.4160 ha        1 2TZ      0.138000
     38 H2          3.3590   -0.8340    0.3270 ha        1 2TZ      0.131000
     39 H3          2.5810    1.1560    1.6190 ha        1 2TZ      0.134000
     40 H4          0.1220    1.5910    1.9180 ha        1 2TZ      0.213000
     41 H5         -1.9740    0.8340    1.9680 h1        1 2TZ      0.141700
     42 H6         -3.9330    1.7750   -0.8800 h1        1 2TZ      0.107700
     43 H7         -4.7120    2.9750    1.0030 hc        1 2TZ      0.049700
     44 H8         -3.9820    1.8400    2.2120 hc        1 2TZ      0.049700
     45 H10        -5.9690   -1.9240    0.4440 h1        1 2TZ      0.102700
     46 H11        -4.5910   -2.6530    3.1080 h1        1 2TZ      0.117700
     47 H12        -5.8200   -3.6980    2.3380 h1        1 2TZ      0.117700
     48 H13        -2.3730   -2.0010    0.7760 h1        1 2TZ      0.045700
     49 H14        -1.4200   -3.2740    2.3880 ha        1 2TZ      0.160000
     50 H15        -0.9270   -3.8100    4.7640 ha        1 2TZ      0.145000
     51 H16        -3.1300   -0.2830    6.0030 ha        1 2TZ      0.145000
     52 H17        -3.6300    0.2440    3.6250 ha        1 2TZ      0.160000
     53 H18        -5.1740   -4.2330    0.3550 hc        1 2TZ      0.038700
     54 H19        -3.5120   -3.7720    0.8880 hc        1 2TZ      0.038700
     55 H20        -3.7590   -4.0890   -1.6210 hc        1 2TZ      0.040700
     56 H21        -3.1990   -2.4210   -1.1950 hc        1 2TZ      0.040700
     57 H22        -4.9250   -2.7000   -1.6600 hc        1 2TZ      0.040700
     58 H23        -6.9860   -4.6630    3.7980 hc        1 2TZ      0.048033
     59 H24        -8.5550   -3.8110    3.4340 hc        1 2TZ      0.048033
     60 H25        -8.1980   -4.4060    5.1100 hc        1 2TZ      0.048033
     61 H26        -5.2470   -3.6350    4.9900 hc        1 2TZ      0.048033
     62 H27        -6.2040   -3.1340    6.4370 hc        1 2TZ      0.048033
     63 H28        -5.3000   -1.8830    5.4840 hc        1 2TZ      0.048033
     64 H29        -9.0430   -1.6110    4.6820 hc        1 2TZ      0.048033
     65 H30        -8.4370   -2.3040    6.2430 hc        1 2TZ      0.048033
     66 H31        -7.6860   -0.7910    5.5840 hc        1 2TZ      0.048033
@<TRIPOS>BOND
     1    1    2 ar  
     2    1    7 ar  
     3    1   37 1   
     4    2    3 1   
     5    2    4 ar  
     6    4    5 ar  
     7    4   38 1   
     8    5    6 ar  
     9    5   39 1   
    10    6    7 ar  
    11    6   40 1   
    12    7    8 1   
    13    8    9 1   
    14    8   20 1   
    15    8   41 1   
    16    9   10 1   
    17   10   11 1   
    18   10   15 1   
    19   10   42 1   
    20   11   12 1   
    21   11   43 1   
    22   11   44 1   
    23   12   13 1   
    24   12   14 1   
    25   15   16 2   
    26   15   17 1   
    27   17   18 1   
    28   17   20 1   
    29   18   19 1   
    30   18   32 1   
    31   18   45 1   
    32   19   28 1   
    33   19   46 1   
    34   19   47 1   
    35   20   21 1   
    36   20   48 1   
    37   21   22 ar  
    38   21   27 ar  
    39   22   23 ar  
    40   22   49 1   
    41   23   24 ar  
    42   23   50 1   
    43   24   25 1   
    44   24   26 ar  
    45   26   27 ar  
    46   26   51 1   
    47   27   52 1   
    48   28   29 2   
    49   28   30 2   
    50   28   31 1   
    51   31   34 1   
    52   31   35 1   
    53   31   36 1   
    54   32   33 1   
    55   32   53 1   
    56   32   54 1   
    57   33   55 1   
    58   33   56 1   
    59   33   57 1   
    60   34   58 1   
    61   34   59 1   
    62   34   60 1   
    63   35   61 1   
    64   35   62 1   
    65   35   63 1   
    66   36   64 1   
    67   36   65 1   
    68   36   66 1   
@<TRIPOS>SUBSTRUCTURE
     1 2TZ         1 TEMP              0 ****  ****    0 ROOT
