@<TRIPOS>MOLECULE
2TZ
   66    68     1     0     0
SMALL
bcc


@<TRIPOS>ATOM
      1 C17        -0.0210   -1.2710    0.1000 ca        1 2TZ     -0.116000
      2 C16         1.3530   -1.4810   -0.0510 ca        1 2TZ     -0.000600
      3 Cl2         1.9000   -2.8340   -0.9410 cl        1 2TZ     -0.137400
      4 C15         2.2820   -0.6030    0.5080 ca        1 2TZ     -0.129000
      5 C14         1.8230    0.5080    1.2160 ca        1 2TZ     -0.136000
      6 C13         0.4580    0.7290    1.3830 ca        1 2TZ     -0.083000
      7 C6         -0.4690   -0.1790    0.8460 ca        1 2TZ     -0.057300
      8 C19        -1.9220    0.1250    1.0760 c3        1 2TZ      0.153400
      9 O6         -2.3950    0.7650   -0.1090 os        1 2TZ     -0.385600
     10 C4         -3.7060    1.2860    0.0720 c3        1 2TZ      0.114100
     11 C21        -3.8600    2.3300    1.1630 c3        1 2TZ     -0.233400
     12 C23        -2.6360    3.2650    1.2840 c         1 2TZ      0.925600
     13 O3         -1.7410    2.9420    2.1240 o         1 2TZ     -0.839300
     14 O2         -2.6060    4.3040    0.5760 o         1 2TZ     -0.839300
     15 C5         -4.6620    0.1130    0.3300 c         1 2TZ      0.672500
     16 O1         -5.8420    0.1520   -0.0670 o         1 2TZ     -0.647500
     17 N1         -4.1920   -1.0150    1.0220 n         1 2TZ     -0.472800
     18 C18        -5.0130   -2.2140    1.0130 c3        1 2TZ      0.133700
     19 C20        -5.4850   -2.6480    2.4180 c3        1 2TZ     -0.339600
     20 C26        -2.7860   -1.1390    1.3930 c3        1 2TZ      0.127000
     21 C7         -2.5710   -1.4540    2.8590 ca        1 2TZ     -0.096300
     22 C8         -1.8130   -2.5760    3.2140 ca        1 2TZ     -0.103000
     23 C9         -1.5450   -2.8570    4.5520 ca        1 2TZ     -0.135000
     24 C10        -2.0470   -2.0100    5.5440 ca        1 2TZ      0.012400
     25 Cl1        -1.7240   -2.3500    7.1830 cl        1 2TZ     -0.120400
     26 C11        -2.8110   -0.8900    5.2040 ca        1 2TZ     -0.135000
     27 C12        -3.0710   -0.6150    3.8620 ca        1 2TZ     -0.103000
     28 S1         -6.7550   -1.7030    3.0470 s6        1 2TZ      1.306000
     29 O4         -6.3080   -0.4420    3.4580 o         1 2TZ     -0.637800
     30 O5         -7.8750   -1.7840    2.2040 o         1 2TZ     -0.637800
     31 C3         -7.1380   -2.6260    4.5050 c3        1 2TZ     -0.233200
     32 C1         -4.3770   -3.4400    0.3310 c3        1 2TZ     -0.086400
     33 C2         -4.0080   -3.1790   -1.1060 c3        1 2TZ     -0.098100
     34 C22        -7.7460   -3.9750    4.1750 c3        1 2TZ     -0.075767
     35 C24        -5.9250   -2.8130    5.3930 c3        1 2TZ     -0.075767
     36 C25        -8.1730   -1.7980    5.2540 c3        1 2TZ     -0.075767
     37 H1         -0.7360   -1.9510   -0.3870 ha        1 2TZ      0.138000
     38 H2          3.3600   -0.7760    0.3830 ha        1 2TZ      0.131000
     39 H3          2.5460    1.2220    1.6390 ha        1 2TZ      0.134000
     40 H4          0.0800    1.6340    1.9060 ha        1 2TZ      0.213000
     41 H5         -2.0080    0.8540    1.9460 h1        1 2TZ      0.141700
     42 H6         -3.9480    1.7320   -0.9360 h1        1 2TZ      0.107700
     43 H7         -4.0300    1.8400    2.1550 hc        1 2TZ      0.049700
     44 H8         -4.7600    2.9500    0.9220 hc        1 2TZ      0.049700
     45 H10        -5.9560   -1.9710    0.4190 h1        1 2TZ      0.102700
     46 H11        -5.8020   -3.7210    2.3360 h1        1 2TZ      0.117700
     47 H12        -4.5960   -2.6480    3.1060 h1        1 2TZ      0.117700
     48 H13        -2.3620   -2.0020    0.7920 h1        1 2TZ      0.045700
     49 H14        -1.4100   -3.2380    2.4320 ha        1 2TZ      0.160000
     50 H15        -0.9370   -3.7320    4.8210 ha        1 2TZ      0.145000
     51 H16        -3.2000   -0.2180    5.9840 ha        1 2TZ      0.145000
     52 H17        -3.6800    0.2680    3.5930 ha        1 2TZ      0.160000
     53 H18        -5.1320   -4.2710    0.3650 hc        1 2TZ      0.038700
     54 H19        -3.4820   -3.7840    0.9100 hc        1 2TZ      0.038700
     55 H20        -4.8780   -2.7580   -1.6650 hc        1 2TZ      0.040700
     56 H21        -3.1600   -2.4550   -1.1850 hc        1 2TZ      0.040700
     57 H22        -3.6980   -4.1330   -1.5980 hc        1 2TZ      0.040700
     58 H23        -6.9710   -4.6830    3.7950 hc        1 2TZ      0.048033
     59 H24        -8.5470   -3.8580    3.4020 hc        1 2TZ      0.048033
     60 H25        -8.2010   -4.4270    5.0900 hc        1 2TZ      0.048033
     61 H26        -5.2590   -3.6160    4.9930 hc        1 2TZ      0.048033
     62 H27        -6.2400   -3.1110    6.4230 hc        1 2TZ      0.048033
     63 H28        -5.3430   -1.8590    5.4650 hc        1 2TZ      0.048033
     64 H29        -7.7440   -0.8000    5.5240 hc        1 2TZ      0.048033
     65 H30        -9.0800   -1.6500    4.6170 hc        1 2TZ      0.048033
     66 H31        -8.4820   -2.3150    6.1930 hc        1 2TZ      0.048033
@<TRIPOS>BOND
     1    1    2 ar  
     2    1    7 ar  
     3    1   37 1   
     4    2    3 1   
     5    2    4 ar  
     6    4    5 ar  
     7    4   38 1   
     8    5    6 ar  
     9    5   39 1   
    10    6    7 ar  
    11    6   40 1   
    12    7    8 1   
    13    8    9 1   
    14    8   20 1   
    15    8   41 1   
    16    9   10 1   
    17   10   11 1   
    18   10   15 1   
    19   10   42 1   
    20   11   12 1   
    21   11   43 1   
    22   11   44 1   
    23   12   13 1   
    24   12   14 1   
    25   15   16 2   
    26   15   17 1   
    27   17   18 1   
    28   17   20 1   
    29   18   19 1   
    30   18   32 1   
    31   18   45 1   
    32   19   28 1   
    33   19   46 1   
    34   19   47 1   
    35   20   21 1   
    36   20   48 1   
    37   21   22 ar  
    38   21   27 ar  
    39   22   23 ar  
    40   22   49 1   
    41   23   24 ar  
    42   23   50 1   
    43   24   25 1   
    44   24   26 ar  
    45   26   27 ar  
    46   26   51 1   
    47   27   52 1   
    48   28   29 2   
    49   28   30 2   
    50   28   31 1   
    51   31   34 1   
    52   31   35 1   
    53   31   36 1   
    54   32   33 1   
    55   32   53 1   
    56   32   54 1   
    57   33   55 1   
    58   33   56 1   
    59   33   57 1   
    60   34   58 1   
    61   34   59 1   
    62   34   60 1   
    63   35   61 1   
    64   35   62 1   
    65   35   63 1   
    66   36   64 1   
    67   36   65 1   
    68   36   66 1   
@<TRIPOS>SUBSTRUCTURE
     1 2TZ         1 TEMP              0 ****  ****    0 ROOT
