@<TRIPOS>MOLECULE
2TZ
   66    68     1     0     0
SMALL
bcc


@<TRIPOS>ATOM
      1 C17        -0.2580   -1.5740   -0.0850 ca        1 2TZ     -0.113000
      2 C16         1.0280   -2.0670   -0.3290 ca        1 2TZ      0.000400
      3 CL2         1.2160   -3.5100   -1.2240 cl        1 2TZ     -0.134400
      4 C15         2.1580   -1.3970    0.1420 ca        1 2TZ     -0.128000
      5 C14         1.9940   -0.2100    0.8570 ca        1 2TZ     -0.136000
      6 C13         0.7200    0.2920    1.1150 ca        1 2TZ     -0.084000
      7 C6         -0.4120   -0.4070    0.6660 ca        1 2TZ     -0.058300
      8 C19        -1.7500    0.1920    0.9920 c3        1 2TZ      0.149400
      9 O6         -2.1800    0.8900   -0.1770 os        1 2TZ     -0.381600
     10 C4         -3.3460    1.6630    0.0750 c3        1 2TZ      0.112100
     11 C21        -3.2090    2.7590    1.1180 c3        1 2TZ     -0.231400
     12 C23        -1.8030    3.3990    1.1690 c         1 2TZ      0.925600
     13 O3         -0.9810    2.9190    2.0080 o         1 2TZ     -0.836800
     14 O2         -1.5640    4.3760    0.4150 o         1 2TZ     -0.836800
     15 C5         -4.4930    0.7230    0.4760 c         1 2TZ      0.671500
     16 O1         -5.6790    1.0200    0.2330 o         1 2TZ     -0.653500
     17 N1         -4.1870   -0.4830    1.1130 n         1 2TZ     -0.471800
     18 C18        -5.2560   -1.4340    1.3600 c3        1 2TZ      0.153700
     19 C20        -5.6960   -1.4710    2.8420 c3        1 2TZ     -0.357600
     20 C26        -2.8180   -0.8630    1.4270 c3        1 2TZ      0.130000
     21 C7         -2.5940   -1.1530    2.8980 ca        1 2TZ     -0.089300
     22 C8         -2.2050   -2.4380    3.2950 ca        1 2TZ     -0.108500
     23 C9         -1.9590   -2.7220    4.6370 ca        1 2TZ     -0.132000
     24 C10        -2.1050   -1.7110    5.5910 ca        1 2TZ      0.011400
     25 CL1        -1.8120   -2.0560    7.2340 cl        1 2TZ     -0.116400
     26 C11        -2.4840   -0.4220    5.2080 ca        1 2TZ     -0.132000
     27 C12        -2.7280   -0.1480    3.8630 ca        1 2TZ     -0.108500
     28 S1         -7.3000   -1.9660    3.1160 s6        1 2TZ      1.293000
     29 O4         -8.0110   -0.9130    3.7200 o         1 2TZ     -0.649800
     30 O5         -7.8790   -2.5470    1.9740 o         1 2TZ     -0.649800
     31 C3         -7.1060   -3.2350    4.3210 c3        1 2TZ     -0.229200
     32 C1         -4.9530   -2.8720    0.9040 c3        1 2TZ     -0.098400
     33 C2         -4.7160   -2.9700   -0.5800 c3        1 2TZ     -0.090100
     34 C22        -6.3530   -4.4280    3.7700 c3        1 2TZ     -0.077767
     35 C24        -6.4230   -2.7230    5.5740 c3        1 2TZ     -0.077767
     36 C25        -8.5170   -3.6790    4.6860 c3        1 2TZ     -0.077767
     37 H1         -1.1330   -2.0930   -0.5020 ha        1 2TZ      0.140000
     38 H2          3.1640   -1.7920   -0.0560 ha        1 2TZ      0.132000
     39 H3          2.8780    0.3410    1.2100 ha        1 2TZ      0.134000
     40 H4          0.5790    1.2580    1.6450 ha        1 2TZ      0.208000
     41 H5         -1.6130    0.9450    1.8340 h1        1 2TZ      0.139700
     42 H6         -3.5820    2.1080   -0.9340 h1        1 2TZ      0.107700
     43 H7         -3.9540    3.5590    0.8760 hc        1 2TZ      0.042200
     44 H8         -3.4460    2.3600    2.1360 hc        1 2TZ      0.042200
     45 H10        -6.1550   -1.0810    0.7570 h1        1 2TZ      0.100700
     46 H11        -4.9290   -2.0790    3.3930 h1        1 2TZ      0.131700
     47 H12        -5.5770   -0.4280    3.2600 h1        1 2TZ      0.131700
     48 H13        -2.6120   -1.8200    0.8540 h1        1 2TZ      0.050700
     49 H14        -2.0740   -3.2320    2.5440 ha        1 2TZ      0.154000
     50 H15        -1.6440   -3.7320    4.9380 ha        1 2TZ      0.145000
     51 H16        -2.5780    0.3800    5.9560 ha        1 2TZ      0.145000
     52 H17        -3.0050    0.8770    3.5590 ha        1 2TZ      0.154000
     53 H18        -5.8480   -3.4980    1.1720 hc        1 2TZ      0.044700
     54 H19        -4.0760   -3.2850    1.4680 hc        1 2TZ      0.044700
     55 H20        -5.5670   -2.5150   -1.1430 hc        1 2TZ      0.039033
     56 H21        -4.6250   -4.0420   -0.8800 hc        1 2TZ      0.039033
     57 H22        -3.7770   -2.4420   -0.8790 hc        1 2TZ      0.039033
     58 H23        -6.8560   -4.8040    2.8430 hc        1 2TZ      0.049811
     59 H24        -5.2970   -4.1600    3.5250 hc        1 2TZ      0.049811
     60 H25        -6.3350   -5.2530    4.5220 hc        1 2TZ      0.049811
     61 H26        -5.3350   -2.5450    5.3970 hc        1 2TZ      0.049811
     62 H27        -6.5170   -3.4710    6.3970 hc        1 2TZ      0.049811
     63 H28        -6.9010   -1.7680    5.9080 hc        1 2TZ      0.049811
     64 H29        -9.0880   -2.8230    5.1230 hc        1 2TZ      0.049811
     65 H30        -8.4810   -4.5020    5.4400 hc        1 2TZ      0.049811
     66 H31        -9.0500   -4.0540    3.7780 hc        1 2TZ      0.049811
@<TRIPOS>BOND
     1    1    2 ar  
     2    1    7 ar  
     3    1   37 1   
     4    2    3 1   
     5    2    4 ar  
     6    4    5 ar  
     7    4   38 1   
     8    5    6 ar  
     9    5   39 1   
    10    6    7 ar  
    11    6   40 1   
    12    7    8 1   
    13    8    9 1   
    14    8   20 1   
    15    8   41 1   
    16    9   10 1   
    17   10   11 1   
    18   10   15 1   
    19   10   42 1   
    20   11   12 1   
    21   11   43 1   
    22   11   44 1   
    23   12   13 1   
    24   12   14 1   
    25   15   16 2   
    26   15   17 1   
    27   17   18 1   
    28   17   20 1   
    29   18   19 1   
    30   18   32 1   
    31   18   45 1   
    32   19   28 1   
    33   19   46 1   
    34   19   47 1   
    35   20   21 1   
    36   20   48 1   
    37   21   22 ar  
    38   21   27 ar  
    39   22   23 ar  
    40   22   49 1   
    41   23   24 ar  
    42   23   50 1   
    43   24   25 1   
    44   24   26 ar  
    45   26   27 ar  
    46   26   51 1   
    47   27   52 1   
    48   28   29 2   
    49   28   30 2   
    50   28   31 1   
    51   31   34 1   
    52   31   35 1   
    53   31   36 1   
    54   32   33 1   
    55   32   53 1   
    56   32   54 1   
    57   33   55 1   
    58   33   56 1   
    59   33   57 1   
    60   34   58 1   
    61   34   59 1   
    62   34   60 1   
    63   35   61 1   
    64   35   62 1   
    65   35   63 1   
    66   36   64 1   
    67   36   65 1   
    68   36   66 1   
@<TRIPOS>SUBSTRUCTURE
     1 2TZ         1 TEMP              0 ****  ****    0 ROOT
