@<TRIPOS>MOLECULE
2U2
   56    55     1     0     0
SMALL
bcc


@<TRIPOS>ATOM
      1 C3          1.2120   -1.0620    0.3430 cc        1 2U2     -0.229400
      2 C2          2.5540   -0.8220    0.0730 cd        1 2U2      0.318000
      3 C5          2.7780   -1.9920    1.9730 cc        1 2U2      0.659300
      4 C12         2.5170   -0.2810   -4.9160 cc        1 2U2     -0.254200
      5 C15         0.3180    0.0110   -6.6330 cc        1 2U2     -0.011000
      6 C14         1.0890   -1.1040   -6.7530 cd        1 2U2     -0.042100
      7 C11         1.7120    0.8100   -4.8180 cd        1 2U2      0.071800
      8 C13         2.2950   -1.3140   -5.9210 c         1 2U2      0.555500
      9 C23         9.8350   -3.7650    1.1680 c         1 2U2      0.586100
     10 C6          3.0660   -0.0340   -1.0570 cf        1 2U2      0.329300
     11 C20         4.5560   -0.1480   -1.3410 c         1 2U2      0.565800
     12 C34         5.3360   -0.2140    3.2980 c         1 2U2      0.519100
     13 C30         3.5740    3.2840    5.3280 c3        1 2U2     -0.024300
     14 C31         4.2480    2.2540    4.4400 c3        1 2U2     -0.159400
     15 C26         8.2640   -1.9040    1.5230 c2        1 2U2      0.172100
     16 C22         9.2530   -2.4920    0.8030 ce        1 2U2     -0.424200
     17 N1          3.4500   -1.3550    0.9990 nd        1 2U2     -0.682000
     18 N7          2.2380    0.6820   -1.7770 n2        1 2U2     -0.436200
     19 N24         4.5230    5.6860    4.9610 n1        1 2U2     -0.404800
     20 N16         0.7280    1.0970   -5.8180 na        1 2U2     -0.272700
     21 N9          3.3190   -2.7030    3.0450 nv        1 2U2     -0.879500
     22 N21         5.4320    0.3650   -0.4310 nt        1 2U2     -0.616000
     23 O36         5.5170    0.8150    2.6130 o         1 2U2     -0.536000
     24 O33         4.2370   -0.2240    4.2000 os        1 2U2     -0.518200
     25 O17         3.0140   -2.3090   -6.1000 o         1 2U2     -0.551100
     26 O28         4.9210   -0.6300   -2.4360 o         1 2U2     -0.633100
     27 O35         5.9320   -1.3110    3.3180 o         1 2U2     -0.536000
     28 O37         2.5790    0.6810    5.2580 o         1 2U2     -0.572000
     29 O18        -0.3030    1.8330   -5.3820 oh        1 2U2     -0.376300
     30 O8          2.8090    1.4160   -2.7260 os        1 2U2     -0.162300
     31 S4          1.0300   -1.9590    1.7380 ss        1 2U2     -0.152300
     32 H1          0.3780   -0.7100   -0.2600 h4        1 2U2      0.183000
     33 H2          3.3670   -0.4270   -4.2190 ha        1 2U2      0.219000
     34 H3         -0.6100    0.1690   -7.2060 h4        1 2U2      0.171000
     35 H4         10.5900   -4.1500    0.4410 h4        1 2U2     -0.030800
     36 H5          2.4420    2.7480   -4.1810 h1        1 2U2      0.080700
     37 H6          0.9130    2.1720   -3.3210 h1        1 2U2      0.080700
     38 H7          2.4660    3.2880    5.1220 hc        1 2U2      0.081700
     39 H8          3.7080    2.9990    6.4090 hc        1 2U2      0.081700
     40 H9          4.1420    2.5220    3.3530 hc        1 2U2      0.101700
     41 H10         5.3490    2.1960    4.6490 hc        1 2U2      0.101700
     42 H11         7.0920   -0.4130    1.7350 ho        1 2U2      0.481000
     43 H12         7.8120   -2.3450    2.4340 h4        1 2U2      0.179000
     44 H13         9.6430   -2.0110   -0.1040 ha        1 2U2      0.136000
     45 H14         4.3300   -2.7380    3.0200 hn        1 2U2      0.418300
     46 H15         3.0230   -2.3020    3.9200 hn        1 2U2      0.418300
     47 H16         5.1390    0.5700    0.5010 hn        1 2U2      0.333000
     48 H19         1.4040   -2.7520   -7.6400 ho        1 2U2      0.442000
     49 H20        -0.1960    2.6980   -5.8250 ho        1 2U2      0.420000
     50 C32         3.6360    0.9020    4.6490 c         1 2U2      0.667100
     51 O25         7.7870   -0.7030    1.1080 oh        1 2U2     -0.528100
     52 C10         1.9010    1.8590   -3.7510 c3        1 2U2      0.181600
     53 C29         4.1060    4.6110    5.1180 c1        1 2U2      0.227700
     54 H212        6.3970    0.1460   -0.5480 hn        1 2U2      0.333000
     55 O27         9.5680   -4.4200    2.1860 o         1 2U2     -0.586100
     56 O19         0.7190   -2.0600   -7.6700 oh        1 2U2     -0.498100
@<TRIPOS>BOND
     1    1    2 2   
     2    1   31 1   
     3    1   32 1   
     4    2   10 1   
     5    2   17 1   
     6    3   17 2   
     7    3   21 1   
     8    3   31 1   
     9    4    7 2   
    10    4    8 1   
    11    4   33 1   
    12    5    6 2   
    13    5   20 1   
    14    5   34 1   
    15    6    8 1   
    16    6   56 1   
    17    7   20 1   
    18    7   52 1   
    19    8   25 2   
    20    9   16 1   
    21    9   35 1   
    22    9   55 2   
    23   10   11 1   
    24   10   18 2   
    25   11   22 1   
    26   11   26 2   
    27   12   23 1   
    28   12   24 1   
    29   12   27 1   
    30   13   14 1   
    31   13   38 1   
    32   13   39 1   
    33   13   53 1   
    34   14   40 1   
    35   14   41 1   
    36   14   50 1   
    37   15   16 2   
    38   15   43 1   
    39   15   51 1   
    40   16   44 1   
    41   18   30 1   
    42   19   53 3   
    43   20   29 1   
    44   21   45 1   
    45   21   46 1   
    46   22   47 1   
    47   22   54 1   
    48   24   50 1   
    49   28   50 2   
    50   29   49 1   
    51   30   52 1   
    52   36   52 1   
    53   37   52 1   
    54   42   51 1   
    55   48   56 1   
@<TRIPOS>SUBSTRUCTURE
     1 2U2         1 TEMP              0 ****  ****    0 ROOT
