@<TRIPOS>MOLECULE
2U3
   57    54     1     0     0
SMALL
bcc


@<TRIPOS>ATOM
      1 N          -1.1000   -0.2780    0.4390 n4        1 2U3     -0.115000
      2 CA          2.8330   -0.9610   -2.8600 c2        1 2U3     -0.285000
      3 C           1.5290   -0.7280   -2.6580 c2        1 2U3      0.010000
      4 O           0.9600    0.1960   -1.8210 oh        1 2U3     -0.306000
      5 C2          4.0110   -0.2420   -2.2660 c3        1 2U3     -0.080000
      6 N3         -2.9710    1.6210    1.7080 n2        1 2U3     -0.352000
      7 C4         -3.4690    0.2890    2.1590 c3        1 2U3      0.105000
      8 C5         -4.7470    0.5410    2.8120 c1        1 2U3     -0.758000
      9 S6         -5.4130    1.7630    3.0070 ss        1 2U3      0.975000
     10 C7         -3.7980    2.5870    2.0220 c2        1 2U3     -0.133000
     11 N8         -3.7600    3.9090    1.7610 n3        1 2U3     -0.324000
     12 C9         -3.5480   -0.6900    1.0000 c2        1 2U3     -0.213000
     13 C10        -2.4840   -0.5610   -0.0300 c2        1 2U3      0.316000
     14 N11        -4.5270   -1.5650    0.9330 n2        1 2U3      0.167000
     15 O12        -2.6360   -0.7000   -1.2400 o         1 2U3     -0.220000
     16 C13         4.0570    1.2050   -2.7810 c3        1 2U3     -0.209000
     17 C14         5.3000   -0.9430   -2.7310 c3        1 2U3     -0.209000
     18 O15         3.0980    0.2320   -0.2080 o         1 2U3     -0.276700
     19 S16         2.4810    0.3420    2.0080 s4        1 2U3      2.897000
     20 O17         1.2260    0.5940    1.5340 o         1 2U3     -0.976000
     21 O18         3.3220    1.3490    2.2980 o         1 2U3     -0.976000
     22 O19         2.7670   -0.9560    2.2700 o         1 2U3     -0.976000
     23 O20        -4.6680   -2.4380    0.0240 oh        1 2U3     -0.152000
     24 C21        -3.2750   -6.4280    2.2130 c1        1 2U3     -0.110000
     25 C22        -2.3120   -5.9270    1.7090 c1        1 2U3     -0.226000
     26 N23         0.9300   -5.7380    2.6700 n3        1 2U3     -0.087000
     27 C24        -0.0010   -4.9620    2.0110 cv        1 2U3     -0.017000
     28 C25        -0.1000   -3.6150    1.7160 cv        1 2U3     -0.167000
     29 C26        -1.2600   -3.8090    0.8160 cv        1 2U3      0.307000
     30 C27        -1.1820   -5.3440    1.0770 cy        1 2U3      0.025000
     31 O28         0.7390   -7.0460    2.6740 oh        1 2U3     -0.183000
     32 O29        -1.9710   -3.0590    0.1600 o         1 2U3     -0.351000
     33 O30         0.4810   -2.4520    2.0930 oh        1 2U3     -0.269000
     34 H1         -0.4470   -0.2390   -0.3580 hn        1 2U3      0.280333
     35 H2         -0.7910   -1.0180    1.0830 hn        1 2U3      0.280333
     36 H3          3.1100   -1.7660   -3.5640 ha        1 2U3      0.168000
     37 H4          0.7280   -1.3140   -3.1500 h4        1 2U3      0.180000
     38 H5          1.5990    0.8920   -1.6030 ho        1 2U3      0.237000
     39 H6          0.0040    2.1650   -0.6220 ha        1 2U3      0.003500
     40 H7         -2.7200   -0.1250    2.9030 h1        1 2U3      0.139000
     41 H8         -4.3890    4.5000    2.2470 hn        1 2U3      0.232000
     42 H9         -2.9650    4.3280    1.3390 hn        1 2U3      0.232000
     43 H10         4.0130    1.1880   -3.8970 hc        1 2U3      0.100500
     44 H11         3.1980    1.8040   -2.3980 hc        1 2U3      0.100500
     45 H12         5.0090    1.6990   -2.4700 hc        1 2U3      0.100500
     46 H13         5.3510   -0.8910   -3.8450 hc        1 2U3      0.100500
     47 H14         6.2010   -0.4360   -2.3080 hc        1 2U3      0.100500
     48 H15         5.3070   -2.0150   -2.4190 hc        1 2U3      0.100500
     49 H16        -3.9560   -2.4630   -0.6640 ho        1 2U3      0.233000
     50 H17        -4.1330   -6.8720    2.6570 ha        1 2U3      0.242000
     51 H18         1.1910   -5.3700    3.5810 hn        1 2U3      0.217000
     52 H19        -0.8610   -5.9240    0.1740 hc        1 2U3      0.165000
     53 H20        -0.0720   -7.2750    3.1780 ho        1 2U3      0.195000
     54 H21         1.4420   -2.6130    2.1760 ho        1 2U3      0.266000
     55 N1          3.9850   -0.2920   -0.7570 n2        1 2U3      0.211700
     56 H22        -1.0360    0.6280    0.9340 hn        1 2U3      0.280333
     57 H121        0.4760    2.1100   -0.1370 ha        1 2U3      0.003500
@<TRIPOS>BOND
     1    1   13 1   
     2    1   34 1   
     3    1   35 1   
     4    1   56 1   
     5    2    3 1   
     6    2    5 1   
     7    2   36 1   
     8    3    4 1   
     9    3   37 1   
    10    4   38 1   
    11    5   16 1   
    12    5   17 1   
    13    5   55 1   
    14    6    7 1   
    15    6   10 1   
    16    7    8 1   
    17    7   12 1   
    18    7   40 1   
    19    8    9 1   
    20    9   10 1   
    21   10   11 1   
    22   11   41 1   
    23   11   42 1   
    24   12   13 1   
    25   12   14 1   
    26   13   15 1   
    27   14   23 1   
    28   16   43 1   
    29   16   44 1   
    30   16   45 1   
    31   17   46 1   
    32   17   47 1   
    33   17   48 1   
    34   18   55 2   
    35   19   20 1   
    36   19   21 1   
    37   19   22 1   
    38   23   49 1   
    39   24   25 1   
    40   24   50 1   
    41   25   30 1   
    42   26   27 1   
    43   26   31 1   
    44   26   51 1   
    45   27   28 1   
    46   27   30 1   
    47   28   29 1   
    48   28   33 1   
    49   29   30 1   
    50   29   32 1   
    51   30   52 1   
    52   31   53 1   
    53   33   54 1   
    54   39   57 1   
@<TRIPOS>SUBSTRUCTURE
     1 2U3         1 TEMP              0 ****  ****    0 ROOT
