@<TRIPOS>MOLECULE
2U3
   58    57     1     0     0
SMALL
bcc


@<TRIPOS>ATOM
      1 N          -0.3020   -0.9330    0.9380 n4        1 2U3     -0.118000
      2 CA          4.4310   -0.3480   -1.3980 c2        1 2U3     -0.371000
      3 C           3.5910   -1.0690   -0.6320 c2        1 2U3      0.094000
      4 O           2.2350   -1.1260   -0.6950 oh        1 2U3     -0.286000
      5 C2          4.1290    0.4970   -2.5840 c3        1 2U3      0.077000
      6 N3         -2.3060    1.0710    1.8250 n2        1 2U3     -0.423000
      7 C4         -2.7520    1.1400    0.4480 c3        1 2U3      0.150000
      8 C5         -2.0530    2.1930   -0.2940 c1        1 2U3     -0.859000
      9 S6         -1.3700    3.1680   -0.9080 ss        1 2U3      1.503000
     10 C7         -3.1850    1.3690    2.7660 c2        1 2U3      0.147000
     11 N8         -2.8990    1.3410    4.0930 n3        1 2U3     -0.351000
     12 C9         -2.4510   -0.2200   -0.2160 c2        1 2U3     -0.127000
     13 C10        -0.9910   -0.5400   -0.3210 c2        1 2U3      0.301000
     14 N11        -3.4320   -0.9710   -0.6310 n2        1 2U3      0.081000
     15 O12        -0.3130   -0.4820   -1.3400 o         1 2U3     -0.213000
     16 C13         3.2310   -0.1900   -3.6110 c3        1 2U3     -0.248500
     17 C14         5.4460    0.8920   -3.2720 c3        1 2U3     -0.248500
     18 O15         2.2740    1.6380   -1.5760 os        1 2U3     -0.704000
     19 S16         1.6550    2.4140   -0.0760 s6        1 2U3      2.929000
     20 O17         1.4050    1.2800    0.6420 o         1 2U3     -0.968000
     21 O18         0.4010    2.9440   -0.5900 os        1 2U3     -1.085000
     22 O19         2.6770    3.2800    0.1120 o         1 2U3     -0.968000
     23 O20        -3.1280   -2.0840   -1.2570 os        1 2U3     -0.215000
     24 C21        -3.8290   -3.2850   -0.7710 c3        1 2U3      0.091000
     25 C22        -3.1920   -3.6740    0.4580 c1        1 2U3     -0.129000
     26 N23        -3.0410   -7.0990    4.2840 n3        1 2U3     -0.125000
     27 C24        -2.9240   -5.9960    3.4460 c2        1 2U3      0.054000
     28 C25        -1.9920   -5.0020    3.6080 c2        1 2U3     -0.171000
     29 C26        -1.7450   -3.9650    2.6300 c2        1 2U3      0.396000
     30 C27        -2.5730   -3.8780    1.4640 c1        1 2U3     -0.185000
     31 O28        -4.2460   -7.6720    4.2590 oh        1 2U3     -0.232000
     32 O29        -0.8250   -3.1220    2.7600 o         1 2U3     -0.402000
     33 O30        -1.2920   -4.9190    4.8010 oh        1 2U3     -0.246000
     34 H1          0.6200   -1.3460    0.7270 hn        1 2U3      0.289667
     35 H2         -0.8720   -1.6020    1.4860 hn        1 2U3      0.289667
     36 H3          5.5100   -0.4270   -1.1640 ha        1 2U3      0.178000
     37 H4          3.9490   -1.7250    0.1900 h4        1 2U3      0.194000
     38 H5          1.9010   -0.5480   -1.4020 ho        1 2U3      0.245000
     39 H6          4.1050    2.3120   -1.4590 hn        1 2U3      0.247000
     40 H7         -3.8720    1.3330    0.3450 h1        1 2U3      0.140000
     41 H8         -4.2410    1.6760    2.5420 h5        1 2U3      0.147000
     42 H9         -2.0090    1.0790    4.4420 hn        1 2U3      0.253000
     43 H10         3.6110   -1.2310   -3.7670 hc        1 2U3      0.119333
     44 H11         2.1650   -0.2440   -3.2830 hc        1 2U3      0.119333
     45 H12         3.2680    0.3480   -4.5900 hc        1 2U3      0.119333
     46 H13         5.9380   -0.0500   -3.6260 hc        1 2U3      0.119333
     47 H14         6.1450    1.4050   -2.5680 hc        1 2U3      0.119333
     48 H15         5.2670    1.5430   -4.1620 hc        1 2U3      0.119333
     49 H16        -3.6360   -4.0100   -1.6120 h1        1 2U3      0.166000
     50 H17        -4.9280   -3.0930   -0.6520 h1        1 2U3      0.166000
     51 H18        -2.7410   -6.9400    5.2430 hn        1 2U3      0.246000
     52 H19        -3.5910   -5.9930    2.5600 h4        1 2U3      0.170000
     53 H20        -4.1020   -8.5700    3.8910 ho        1 2U3      0.244000
     54 H21        -0.3600   -4.7700    4.5750 ho        1 2U3      0.229000
     55 N1          3.4650    1.8370   -2.1250 n4        1 2U3      0.142000
     56 H22        -0.1370   -0.0870    1.5090 hn        1 2U3      0.289667
     57 H83        -3.6130    1.5640    4.7450 hn        1 2U3      0.253000
     58 H121        3.3430    2.4320   -2.9660 hn        1 2U3      0.247000
@<TRIPOS>BOND
     1    1   13 1   
     2    1   34 1   
     3    1   35 1   
     4    1   56 1   
     5    2    3 1   
     6    2    5 1   
     7    2   36 1   
     8    3    4 1   
     9    3   37 1   
    10    4   38 1   
    11    5   16 1   
    12    5   17 1   
    13    5   55 1   
    14    6    7 1   
    15    6   10 1   
    16    7    8 1   
    17    7   12 1   
    18    7   40 1   
    19    8    9 1   
    20    9   21 1   
    21   10   11 1   
    22   10   41 1   
    23   11   42 1   
    24   11   57 1   
    25   12   13 1   
    26   12   14 1   
    27   13   15 1   
    28   14   23 1   
    29   16   43 1   
    30   16   44 1   
    31   16   45 1   
    32   17   46 1   
    33   17   47 1   
    34   17   48 1   
    35   18   19 1   
    36   18   55 1   
    37   19   20 1   
    38   19   21 1   
    39   19   22 1   
    40   23   24 1   
    41   24   25 1   
    42   24   49 1   
    43   24   50 1   
    44   25   30 1   
    45   26   27 1   
    46   26   31 1   
    47   26   51 1   
    48   27   28 1   
    49   27   52 1   
    50   28   29 1   
    51   28   33 1   
    52   29   30 1   
    53   29   32 1   
    54   31   53 1   
    55   33   54 1   
    56   39   55 1   
    57   55   58 1   
@<TRIPOS>SUBSTRUCTURE
     1 2U3         1 TEMP              0 ****  ****    0 ROOT
