@<TRIPOS>MOLECULE
2U7
   66    68     1     0     0
SMALL
bcc


@<TRIPOS>ATOM
      1 C16         0.1780    1.6870    1.0520 ca        1 2U7     -0.132000
      2 C15         1.2530    2.4900    1.4360 ca        1 2U7      0.011400
      3 CL2         2.0490    3.4450    0.2680 cl        1 2U7     -0.119400
      4 C14         1.6870    2.5210    2.7650 ca        1 2U7     -0.130000
      5 C13         1.0300    1.7360    3.7100 ca        1 2U7     -0.130000
      6 C12        -0.0480    0.9320    3.3400 ca        1 2U7     -0.089000
      7 C6         -0.4810    0.9070    2.0100 ca        1 2U7     -0.066300
      8 C2         -1.6180    0.0260    1.5760 c3        1 2U7      0.180400
      9 O1         -2.0990   -0.6620    2.7240 os        1 2U7     -0.392600
     10 C3         -3.2630   -1.4420    2.4230 c3        1 2U7      0.086100
     11 C22        -3.5290   -2.3360    3.6180 c3        1 2U7     -0.202400
     12 C23        -3.0540   -3.7820    3.3440 c         1 2U7      0.917600
     13 O4         -2.9490   -4.5470    4.3400 o         1 2U7     -0.839300
     14 O3         -2.8100   -4.1200    2.1490 o         1 2U7     -0.839300
     15 C4         -4.4080   -0.4860    2.0870 c         1 2U7      0.674500
     16 O2         -5.5970   -0.7000    2.3810 o         1 2U7     -0.626500
     17 N1         -4.0630    0.6980    1.4120 n         1 2U7     -0.478800
     18 C17        -5.0930    1.6720    1.1110 c3        1 2U7      0.158700
     19 C19        -4.6620    3.1370    1.3030 c3        1 2U7     -0.096400
     20 C21        -4.2110    3.4250    2.7100 c3        1 2U7     -0.089100
     21 C18        -5.6800    1.5110   -0.3110 c3        1 2U7     -0.362600
     22 S1         -7.2390    2.1480   -0.5550 s6        1 2U7      1.295000
     23 O5         -8.1040    1.1140   -0.9510 o         1 2U7     -0.647800
     24 O6         -7.6580    2.9510    0.5190 o         1 2U7     -0.647800
     25 C20        -7.0060    3.2000   -1.9500 c3        1 2U7     -0.230200
     26 C25        -6.4970    2.4330   -3.1540 c3        1 2U7     -0.077433
     27 C26        -8.3840    3.7590   -2.2800 c3        1 2U7     -0.077433
     28 C24        -6.0790    4.3570   -1.6420 c3        1 2U7     -0.077433
     29 C1         -2.7340    0.8720    0.8640 c3        1 2U7      0.129000
     30 C5         -2.6510    0.5970   -0.6270 ca        1 2U7     -0.107300
     31 C7         -2.8930   -0.6810   -1.1440 ca        1 2U7     -0.118000
     32 C8         -2.7890   -0.9210   -2.5130 ca        1 2U7     -0.127000
     33 C9         -2.4400    0.1250   -3.3720 ca        1 2U7      0.013400
     34 CL1        -2.3090   -0.1590   -5.0460 cl        1 2U7     -0.108400
     35 C10        -2.1980    1.4070   -2.8690 ca        1 2U7     -0.127000
     36 C11        -2.3080    1.6360   -1.4990 ca        1 2U7     -0.118000
     37 H1         -0.1540    1.6600    0.0010 ha        1 2U7      0.148000
     38 H2          2.5370    3.1530    3.0590 ha        1 2U7      0.138000
     39 H3          1.3670    1.7470    4.7570 ha        1 2U7      0.135000
     40 H4         -0.5600    0.3040    4.0900 ha        1 2U7      0.175000
     41 H5         -1.2240   -0.7410    0.8450 h1        1 2U7      0.072700
     42 H6         -3.0740   -2.0990    1.5170 h1        1 2U7      0.117700
     43 H7         -4.6260   -2.3650    3.8310 hc        1 2U7      0.061700
     44 H8         -2.9980   -1.9460    4.5200 hc        1 2U7      0.061700
     45 H10        -5.9400    1.4760    1.8450 h1        1 2U7      0.101700
     46 H11        -5.5560    3.7780    1.0680 hc        1 2U7      0.043700
     47 H12        -3.8570    3.4100    0.5710 hc        1 2U7      0.043700
     48 H13        -3.2660    2.8830    2.9550 hc        1 2U7      0.040033
     49 H14        -4.0290    4.5210    2.8330 hc        1 2U7      0.040033
     50 H15        -4.9930    3.1120    3.4430 hc        1 2U7      0.040033
     51 H16        -5.7300    0.4020   -0.5270 h1        1 2U7      0.130200
     52 H17        -4.9100    1.9020   -1.0280 h1        1 2U7      0.130200
     53 H18        -5.4210    2.1580   -3.0340 hc        1 2U7      0.049256
     54 H19        -6.5880    3.0570   -4.0760 hc        1 2U7      0.049256
     55 H20        -7.0990    1.5010   -3.2980 hc        1 2U7      0.049256
     56 H21        -9.0830    2.9270   -2.5420 hc        1 2U7      0.049256
     57 H22        -8.7920    4.3210   -1.4030 hc        1 2U7      0.049256
     58 H23        -8.3220    4.4570   -3.1490 hc        1 2U7      0.049256
     59 H24        -6.0300    5.0550   -2.5120 hc        1 2U7      0.049256
     60 H25        -6.4550    4.9240   -0.7530 hc        1 2U7      0.049256
     61 H26        -5.0420    3.9960   -1.4280 hc        1 2U7      0.049256
     62 H27        -2.4590    1.9620    1.0220 h1        1 2U7      0.063700
     63 H28        -3.1640   -1.5100   -0.4680 ha        1 2U7      0.153000
     64 H29        -2.9770   -1.9320   -2.9080 ha        1 2U7      0.148500
     65 H30        -1.9190    2.2280   -3.5450 ha        1 2U7      0.148500
     66 H31        -2.1190    2.6470   -1.1030 ha        1 2U7      0.153000
@<TRIPOS>BOND
     1    1    2 ar  
     2    1    7 ar  
     3    1   37 1   
     4    2    3 1   
     5    2    4 ar  
     6    4    5 ar  
     7    4   38 1   
     8    5    6 ar  
     9    5   39 1   
    10    6    7 ar  
    11    6   40 1   
    12    7    8 1   
    13    8    9 1   
    14    8   29 1   
    15    8   41 1   
    16    9   10 1   
    17   10   11 1   
    18   10   15 1   
    19   10   42 1   
    20   11   12 1   
    21   11   43 1   
    22   11   44 1   
    23   12   13 1   
    24   12   14 1   
    25   15   16 2   
    26   15   17 1   
    27   17   18 1   
    28   17   29 1   
    29   18   19 1   
    30   18   21 1   
    31   18   45 1   
    32   19   20 1   
    33   19   46 1   
    34   19   47 1   
    35   20   48 1   
    36   20   49 1   
    37   20   50 1   
    38   21   22 1   
    39   21   51 1   
    40   21   52 1   
    41   22   23 2   
    42   22   24 2   
    43   22   25 1   
    44   25   26 1   
    45   25   27 1   
    46   25   28 1   
    47   26   53 1   
    48   26   54 1   
    49   26   55 1   
    50   27   56 1   
    51   27   57 1   
    52   27   58 1   
    53   28   59 1   
    54   28   60 1   
    55   28   61 1   
    56   29   30 1   
    57   29   62 1   
    58   30   31 ar  
    59   30   36 ar  
    60   31   32 ar  
    61   31   63 1   
    62   32   33 ar  
    63   32   64 1   
    64   33   34 1   
    65   33   35 ar  
    66   35   36 ar  
    67   35   65 1   
    68   36   66 1   
@<TRIPOS>SUBSTRUCTURE
     1 2U7         1 TEMP              0 ****  ****    0 ROOT
