@<TRIPOS>MOLECULE
2U7
   66    68     1     0     0
SMALL
bcc


@<TRIPOS>ATOM
      1 C16         0.1600    1.7910    1.0830 ca        1 2U7     -0.132000
      2 C15         1.2080    2.6200    1.4850 ca        1 2U7      0.011400
      3 CL2         1.9830    3.6130    0.3350 cl        1 2U7     -0.119400
      4 C14         1.6320    2.6460    2.8170 ca        1 2U7     -0.130000
      5 C13         0.9920    1.8290    3.7470 ca        1 2U7     -0.130000
      6 C12        -0.0590    0.9980    3.3590 ca        1 2U7     -0.089000
      7 C6         -0.4820    0.9790    2.0260 ca        1 2U7     -0.066300
      8 C2         -1.5900    0.0710    1.5730 c3        1 2U7      0.180400
      9 O1         -2.0580   -0.6470    2.7080 os        1 2U7     -0.392600
     10 C3         -3.1970   -1.4570    2.3880 c3        1 2U7      0.086100
     11 C22        -3.4440   -2.3730    3.5700 c3        1 2U7     -0.202400
     12 C23        -2.9250   -3.8010    3.2810 c         1 2U7      0.917600
     13 O4         -2.8040   -4.5750    4.2680 o         1 2U7     -0.839300
     14 O3         -2.6620   -4.1170    2.0830 o         1 2U7     -0.839300
     15 C4         -4.3670   -0.5310    2.0560 c         1 2U7      0.674500
     16 O2         -5.5510   -0.7830    2.3390 o         1 2U7     -0.626500
     17 N1         -4.0520    0.6720    1.3990 n         1 2U7     -0.478800
     18 C17        -5.1080    1.6190    1.1030 c3        1 2U7      0.158700
     19 C19        -4.7220    3.0930    1.3210 c3        1 2U7     -0.096400
     20 C21        -4.2900    3.3730    2.7360 c3        1 2U7     -0.089100
     21 C18        -5.6780    1.4620   -0.3260 c3        1 2U7     -0.362600
     22 S1         -7.2530    2.0570   -0.5750 s6        1 2U7      1.295000
     23 O5         -8.0840    1.0040   -0.9930 o         1 2U7     -0.647800
     24 O6         -7.7050    2.8310    0.5080 o         1 2U7     -0.647800
     25 C20        -7.0400    3.1360   -1.9510 c3        1 2U7     -0.230200
     26 C25        -6.4980    2.4030   -3.1620 c3        1 2U7     -0.077433
     27 C26        -8.4310    3.6600   -2.2850 c3        1 2U7     -0.077433
     28 C24        -6.1500    4.3160   -1.6170 c3        1 2U7     -0.077433
     29 C1         -2.7250    0.8920    0.8630 c3        1 2U7      0.129000
     30 C5         -2.6230    0.6380   -0.6310 ca        1 2U7     -0.107300
     31 C7         -2.8240   -0.6390   -1.1660 ca        1 2U7     -0.118000
     32 C8         -2.7030   -0.8580   -2.5370 ca        1 2U7     -0.127000
     33 C9         -2.3790    0.2090   -3.3800 ca        1 2U7      0.013400
     34 CL1        -2.2280   -0.0500   -5.0560 cl        1 2U7     -0.108400
     35 C10        -2.1790    1.4910   -2.8590 ca        1 2U7     -0.127000
     36 C11        -2.3050    1.6990   -1.4870 ca        1 2U7     -0.118000
     37 H1         -0.1650    1.7680    0.0300 ha        1 2U7      0.148000
     38 H2          2.4610    3.2990    3.1260 ha        1 2U7      0.138000
     39 H3          1.3220    1.8370    4.7970 ha        1 2U7      0.135000
     40 H4         -0.5570    0.3460    4.0970 ha        1 2U7      0.175000
     41 H5         -1.1680   -0.6750    0.8350 h1        1 2U7      0.072700
     42 H6         -2.9810   -2.0950    1.4750 h1        1 2U7      0.117700
     43 H7         -2.9310   -1.9790    4.4810 hc        1 2U7      0.061700
     44 H8         -4.5420   -2.4380    3.7740 hc        1 2U7      0.061700
     45 H10        -5.9550    1.3880    1.8270 h1        1 2U7      0.101700
     46 H11        -5.6330    3.7110    1.0880 hc        1 2U7      0.043700
     47 H12        -3.9200    3.4010    0.6000 hc        1 2U7      0.043700
     48 H13        -4.1420    4.4720    2.8770 hc        1 2U7      0.040033
     49 H14        -3.3310    2.8560    2.9790 hc        1 2U7      0.040033
     50 H15        -5.0680    3.0250    3.4580 hc        1 2U7      0.040033
     51 H16        -4.9140    1.8870   -1.0300 h1        1 2U7      0.130200
     52 H17        -5.6940    0.3560   -0.5590 h1        1 2U7      0.130200
     53 H18        -7.0710    1.4560   -3.3260 hc        1 2U7      0.049256
     54 H19        -5.4150    2.1580   -3.0360 hc        1 2U7      0.049256
     55 H20        -6.6000    3.0380   -4.0750 hc        1 2U7      0.049256
     56 H21        -9.1030    2.8110   -2.5660 hc        1 2U7      0.049256
     57 H22        -8.8620    4.1960   -1.4040 hc        1 2U7      0.049256
     58 H23        -8.3820    4.3720   -3.1430 hc        1 2U7      0.049256
     59 H24        -6.1150    5.0280   -2.4770 hc        1 2U7      0.049256
     60 H25        -6.5500    4.8570   -0.7240 hc        1 2U7      0.049256
     61 H26        -5.1050    3.9820   -1.4010 hc        1 2U7      0.049256
     62 H27        -2.4830    1.9870    1.0370 h1        1 2U7      0.063700
     63 H28        -3.0750   -1.4850   -0.5020 ha        1 2U7      0.153000
     64 H29        -2.8570   -1.8690   -2.9470 ha        1 2U7      0.148500
     65 H30        -1.9200    2.3290   -3.5220 ha        1 2U7      0.148500
     66 H31        -2.1490    2.7090   -1.0770 ha        1 2U7      0.153000
@<TRIPOS>BOND
     1    1    2 ar  
     2    1    7 ar  
     3    1   37 1   
     4    2    3 1   
     5    2    4 ar  
     6    4    5 ar  
     7    4   38 1   
     8    5    6 ar  
     9    5   39 1   
    10    6    7 ar  
    11    6   40 1   
    12    7    8 1   
    13    8    9 1   
    14    8   29 1   
    15    8   41 1   
    16    9   10 1   
    17   10   11 1   
    18   10   15 1   
    19   10   42 1   
    20   11   12 1   
    21   11   43 1   
    22   11   44 1   
    23   12   13 1   
    24   12   14 1   
    25   15   16 2   
    26   15   17 1   
    27   17   18 1   
    28   17   29 1   
    29   18   19 1   
    30   18   21 1   
    31   18   45 1   
    32   19   20 1   
    33   19   46 1   
    34   19   47 1   
    35   20   48 1   
    36   20   49 1   
    37   20   50 1   
    38   21   22 1   
    39   21   51 1   
    40   21   52 1   
    41   22   23 2   
    42   22   24 2   
    43   22   25 1   
    44   25   26 1   
    45   25   27 1   
    46   25   28 1   
    47   26   53 1   
    48   26   54 1   
    49   26   55 1   
    50   27   56 1   
    51   27   57 1   
    52   27   58 1   
    53   28   59 1   
    54   28   60 1   
    55   28   61 1   
    56   29   30 1   
    57   29   62 1   
    58   30   31 ar  
    59   30   36 ar  
    60   31   32 ar  
    61   31   63 1   
    62   32   33 ar  
    63   32   64 1   
    64   33   34 1   
    65   33   35 ar  
    66   35   36 ar  
    67   35   65 1   
    68   36   66 1   
@<TRIPOS>SUBSTRUCTURE
     1 2U7         1 TEMP              0 ****  ****    0 ROOT
