@<TRIPOS>MOLECULE
2U7
   66    68     1     0     0
SMALL
bcc


@<TRIPOS>ATOM
      1 C16         0.3930    1.7110    1.7650 ca        1 2U7     -0.131000
      2 C15         1.4020    2.2740    2.5490 ca        1 2U7      0.012400
      3 Cl2         2.4900    3.3850    1.8480 cl        1 2U7     -0.117400
      4 C14         1.5310    1.9400    3.9000 ca        1 2U7     -0.130000
      5 C13         0.6370    1.0320    4.4620 ca        1 2U7     -0.130000
      6 C12        -0.3770    0.4630    3.6910 ca        1 2U7     -0.090000
      7 C6         -0.5040    0.8030    2.3400 ca        1 2U7     -0.067300
      8 C2         -1.5640    0.1830    1.4740 c3        1 2U7      0.179400
      9 O1         -2.3140   -0.7200    2.2790 os        1 2U7     -0.395600
     10 C3         -3.4360   -1.2560    1.5670 c3        1 2U7      0.083100
     11 C22        -4.0030   -2.3920    2.3950 c3        1 2U7     -0.202400
     12 C23        -3.7530   -3.7590    1.7160 c         1 2U7      0.916600
     13 O4         -3.9940   -4.7880    2.4010 o         1 2U7     -0.838800
     14 O3         -3.3340   -3.7730    0.5200 o         1 2U7     -0.838800
     15 C4         -4.4230   -0.1210    1.2990 c         1 2U7      0.678500
     16 O2         -5.6600   -0.2660    1.3080 o         1 2U7     -0.643500
     17 N1         -3.8760    1.1440    1.0340 n         1 2U7     -0.475800
     18 C17        -4.7600    2.2670    0.7880 c3        1 2U7      0.158700
     19 C19        -4.2870    3.5970    1.3990 c3        1 2U7     -0.098400
     20 C21        -4.1180    3.5180    2.8940 c3        1 2U7     -0.089100
     21 C18        -5.0550    2.4860   -0.7130 c3        1 2U7     -0.353600
     22 S1         -6.4580    3.3690   -1.1100 s6        1 2U7      1.280000
     23 O5         -7.0010    4.0230    0.0130 o         1 2U7     -0.658300
     24 O6         -6.1380    4.2070   -2.2010 o         1 2U7     -0.658300
     25 C20        -7.5870    2.1500   -1.6530 c3        1 2U7     -0.225200
     26 C25        -7.9300    1.1840   -0.5350 c3        1 2U7     -0.084100
     27 C26        -8.8500    2.9010   -2.0570 c3        1 2U7     -0.084100
     28 C24        -7.0740    1.3830   -2.8560 c3        1 2U7     -0.084100
     29 C1         -2.4530    1.2940    0.8090 c3        1 2U7      0.129000
     30 C5         -2.0750    1.3810   -0.6590 ca        1 2U7     -0.110300
     31 C7         -2.2580    0.2960   -1.5240 ca        1 2U7     -0.118000
     32 C8         -1.8810    0.3870   -2.8630 ca        1 2U7     -0.125000
     33 C9         -1.3200    1.5750   -3.3420 ca        1 2U7      0.016400
     34 Cl1        -0.8550    1.6920   -4.9760 cl        1 2U7     -0.107400
     35 C10        -1.1380    2.6680   -2.4910 ca        1 2U7     -0.125000
     36 C11        -1.5180    2.5660   -1.1540 ca        1 2U7     -0.118000
     37 H1          0.2980    1.9740    0.6980 ha        1 2U7      0.149000
     38 H2          2.3290    2.3860    4.5100 ha        1 2U7      0.138000
     39 H3          0.7330    0.7580    5.5230 ha        1 2U7      0.134000
     40 H4         -1.0780   -0.2620    4.1370 ha        1 2U7      0.172000
     41 H5         -1.0600   -0.4140    0.6560 h1        1 2U7      0.071700
     42 H6         -3.1020   -1.6730    0.5640 h1        1 2U7      0.119700
     43 H7         -5.1070   -2.2640    2.5190 hc        1 2U7      0.061200
     44 H8         -3.5290   -2.4040    3.4080 hc        1 2U7      0.061200
     45 H10        -5.7500    2.0060    1.2840 h1        1 2U7      0.093700
     46 H11        -3.3320    3.9340    0.9170 hc        1 2U7      0.050700
     47 H12        -5.0700    4.3690    1.1640 hc        1 2U7      0.050700
     48 H13        -3.2810    2.8350    3.1750 hc        1 2U7      0.038700
     49 H14        -5.0530    3.1390    3.3730 hc        1 2U7      0.038700
     50 H15        -3.8960    4.5330    3.3040 hc        1 2U7      0.038700
     51 H16        -5.0650    1.4740   -1.2040 h1        1 2U7      0.127700
     52 H17        -4.1570    3.0020   -1.1590 h1        1 2U7      0.127700
     53 H18        -7.0360    0.5830   -0.2300 hc        1 2U7      0.055478
     54 H19        -8.3090    1.7450    0.3550 hc        1 2U7      0.055478
     55 H20        -8.7250    0.4750   -0.8710 hc        1 2U7      0.055478
     56 H21        -8.6310    3.5920   -2.9080 hc        1 2U7      0.055478
     57 H22        -9.2400    3.4910   -1.1910 hc        1 2U7      0.055478
     58 H23        -9.6400    2.1810   -2.3770 hc        1 2U7      0.055478
     59 H24        -7.9210    0.8650   -3.3700 hc        1 2U7      0.055478
     60 H25        -6.5940    2.0820   -3.5850 hc        1 2U7      0.055478
     61 H26        -6.3380    0.5990   -2.5530 hc        1 2U7      0.055478
     62 H27        -2.1520    2.2760    1.2930 h1        1 2U7      0.066700
     63 H28        -2.6960   -0.6450   -1.1490 ha        1 2U7      0.153000
     64 H29        -2.0230   -0.4750   -3.5320 ha        1 2U7      0.149000
     65 H30        -0.7000    3.6030   -2.8700 ha        1 2U7      0.149000
     66 H31        -1.3770    3.4300   -0.4850 ha        1 2U7      0.153000
@<TRIPOS>BOND
     1    1    2 ar  
     2    1    7 ar  
     3    1   37 1   
     4    2    3 1   
     5    2    4 ar  
     6    4    5 ar  
     7    4   38 1   
     8    5    6 ar  
     9    5   39 1   
    10    6    7 ar  
    11    6   40 1   
    12    7    8 1   
    13    8    9 1   
    14    8   29 1   
    15    8   41 1   
    16    9   10 1   
    17   10   11 1   
    18   10   15 1   
    19   10   42 1   
    20   11   12 1   
    21   11   43 1   
    22   11   44 1   
    23   12   13 1   
    24   12   14 1   
    25   15   16 2   
    26   15   17 1   
    27   17   18 1   
    28   17   29 1   
    29   18   19 1   
    30   18   21 1   
    31   18   45 1   
    32   19   20 1   
    33   19   46 1   
    34   19   47 1   
    35   20   48 1   
    36   20   49 1   
    37   20   50 1   
    38   21   22 1   
    39   21   51 1   
    40   21   52 1   
    41   22   23 2   
    42   22   24 2   
    43   22   25 1   
    44   25   26 1   
    45   25   27 1   
    46   25   28 1   
    47   26   53 1   
    48   26   54 1   
    49   26   55 1   
    50   27   56 1   
    51   27   57 1   
    52   27   58 1   
    53   28   59 1   
    54   28   60 1   
    55   28   61 1   
    56   29   30 1   
    57   29   62 1   
    58   30   31 ar  
    59   30   36 ar  
    60   31   32 ar  
    61   31   63 1   
    62   32   33 ar  
    63   32   64 1   
    64   33   34 1   
    65   33   35 ar  
    66   35   36 ar  
    67   35   65 1   
    68   36   66 1   
@<TRIPOS>SUBSTRUCTURE
     1 2U7         1 TEMP              0 ****  ****    0 ROOT
