@<TRIPOS>MOLECULE
2U8
   46    48     1     0     0
SMALL
bcc


@<TRIPOS>ATOM
      1 C1         -0.1220   -0.1040    0.0210 ca        1 2U8      0.019000
      2 N1         -1.2220    3.4530   -3.2510 n         1 2U8     -0.412800
      3 O1         -1.7350   -0.9710   -4.3410 oh        1 2U8     -0.595800
      4 C2          1.1330   -0.7280    0.1080 ca        1 2U8     -0.110000
      5 O2         -2.6580    4.4200   -1.6200 o         1 2U8     -0.593000
      6 C3         -0.7290    0.4000    1.1830 ca        1 2U8     -0.104000
      7 O3         -0.4570    4.2740   -1.2220 os        1 2U8     -0.443900
      8 C4         -0.7720    0.0130   -1.2230 cg        1 2U8     -0.089000
      9 C5          1.7660   -0.8420    1.3430 ca        1 2U8     -0.130000
     10 C6          1.1610   -0.3410    2.4940 ca        1 2U8     -0.120000
     11 C7         -0.0900    0.2820    2.4210 ca        1 2U8     -0.079300
     12 C8         -0.7390    0.8010    3.6480 c3        1 2U8     -0.054800
     13 C9         -1.3260    0.1130   -2.2810 c1        1 2U8     -0.158100
     14 C10        -2.0270    0.1920   -3.5510 c3        1 2U8      0.249900
     15 C11        -3.5430    0.2420   -3.2950 c3        1 2U8     -0.102400
     16 C12        -3.9500    1.5730   -2.7090 c3        1 2U8     -0.075400
     17 C13        -3.6500    2.6920   -3.6770 c3        1 2U8     -0.090400
     18 C14        -2.1900    2.7520   -4.1020 c3        1 2U8      0.107700
     19 C15        -1.5650    1.3670   -4.4380 c3        1 2U8     -0.067700
     20 C16        -0.0580    1.6120   -4.3260 c3        1 2U8     -0.091400
     21 C17         0.1000    2.8490   -3.4250 c3        1 2U8      0.073000
     22 C19        -0.7320    5.0240   -0.0390 c3        1 2U8      0.138700
     23 H1         -1.9800   -1.7410   -3.8150 ho        1 2U8      0.407000
     24 H2          1.6120   -1.1230   -0.7990 ha        1 2U8      0.139000
     25 H3         -1.7110    0.8910    1.1150 ha        1 2U8      0.141000
     26 H4          2.7500   -1.3300    1.4090 ha        1 2U8      0.135000
     27 H5          1.6680   -0.4330    3.4670 ha        1 2U8      0.134000
     28 H6         -1.3000   -0.0220    4.1590 hc        1 2U8      0.046367
     29 H7         -1.4610    1.6190    3.4070 hc        1 2U8      0.046367
     30 H8          0.0230    1.2000    4.3620 hc        1 2U8      0.046367
     31 H9         -3.8270   -0.5900   -2.6000 hc        1 2U8      0.053700
     32 H10        -4.0670    0.0670   -4.2710 hc        1 2U8      0.053700
     33 H11        -5.0480    1.5620   -2.4820 hc        1 2U8      0.055200
     34 H12        -3.4080    1.7540   -1.7430 hc        1 2U8      0.055200
     35 H13        -3.9670    3.6720   -3.2310 hc        1 2U8      0.069700
     36 H14        -4.2530    2.5370   -4.6130 hc        1 2U8      0.069700
     37 H15        -2.1670    3.3480   -5.0700 h1        1 2U8      0.060700
     38 H16        -1.8440    1.0970   -5.4910 hc        1 2U8      0.085700
     39 H17         0.3740    1.8150   -5.3370 hc        1 2U8      0.062700
     40 H18         0.4720    0.7300   -3.8930 hc        1 2U8      0.062700
     41 H19         0.5500    2.5630   -2.4350 h1        1 2U8      0.062700
     42 H20         0.7650    3.6160   -3.9060 h1        1 2U8      0.062700
     43 H21        -1.1550    6.0220   -0.3070 h1        1 2U8      0.049367
     44 H22        -1.4480    4.4670    0.6110 h1        1 2U8      0.049367
     45 H23         0.2730    5.1190    0.4440 h1        1 2U8      0.049367
     46 C18        -1.5540    4.0210   -2.0310 c         1 2U8      0.732100
@<TRIPOS>BOND
     1    1    4 ar  
     2    1    6 ar  
     3    1    8 1   
     4    2   18 1   
     5    2   21 1   
     6    2   46 1   
     7    3   14 1   
     8    3   23 1   
     9    4    9 ar  
    10    4   24 1   
    11    5   46 2   
    12    6   11 ar  
    13    6   25 1   
    14    7   22 1   
    15    7   46 1   
    16    8   13 3   
    17    9   10 ar  
    18    9   26 1   
    19   10   11 ar  
    20   10   27 1   
    21   11   12 1   
    22   12   28 1   
    23   12   29 1   
    24   12   30 1   
    25   13   14 1   
    26   14   15 1   
    27   14   19 1   
    28   15   16 1   
    29   15   31 1   
    30   15   32 1   
    31   16   17 1   
    32   16   33 1   
    33   16   34 1   
    34   17   18 1   
    35   17   35 1   
    36   17   36 1   
    37   18   19 1   
    38   18   37 1   
    39   19   20 1   
    40   19   38 1   
    41   20   21 1   
    42   20   39 1   
    43   20   40 1   
    44   21   41 1   
    45   21   42 1   
    46   22   43 1   
    47   22   44 1   
    48   22   45 1   
@<TRIPOS>SUBSTRUCTURE
     1 2U8         1 TEMP              0 ****  ****    0 ROOT
