@<TRIPOS>MOLECULE
2U8
   46    49     1     0     0
SMALL
bcc


@<TRIPOS>ATOM
      1 C1         -0.1530    0.4920   -0.2880 ca        1 2U8     -0.064800
      2 N1         -3.2110   -0.0860   -3.8380 n         1 2U8     -0.409800
      3 O1          0.8130    1.0980   -3.5610 oh        1 2U8     -0.590800
      4 C2          1.1730    0.8540   -0.5520 ca        1 2U8     -0.115000
      5 O2         -4.4830   -1.9960   -3.2600 o         1 2U8     -0.586000
      6 C3         -0.4540   -0.1890    0.9030 ca        1 2U8     -0.119000
      7 O3         -4.5100   -0.1940   -1.9160 os        1 2U8     -0.445900
      8 C4         -1.2480    0.8380   -1.1820 ce        1 2U8     -0.056200
      9 C5          2.1800    0.5310    0.3580 ca        1 2U8     -0.135000
     10 C6          1.8770   -0.1540    1.5310 ca        1 2U8     -0.126000
     11 C7          0.5550   -0.5210    1.8100 ca        1 2U8     -0.083300
     12 C8          0.2330   -1.2630    3.0510 c3        1 2U8     -0.052800
     13 C9         -1.3040    0.7340   -2.5100 c2        1 2U8     -0.145400
     14 C10        -0.2990    0.2090   -3.5320 c3        1 2U8      0.196000
     15 C11         0.1700   -1.2160   -3.2640 c3        1 2U8     -0.100400
     16 C12        -0.9690   -2.2090   -3.2830 c3        1 2U8     -0.073400
     17 C13        -1.7870   -2.1050   -4.5500 c3        1 2U8     -0.101400
     18 C14        -2.2790   -0.6910   -4.8220 c3        1 2U8      0.101700
     19 C15        -1.0970    0.3360   -4.8760 c3        1 2U8     -0.117700
     20 C16        -1.8480    1.6690   -4.6260 c3        1 2U8     -0.084400
     21 C17        -2.5440    1.1300   -3.3250 c3        1 2U8      0.121900
     22 C19        -5.5400   -0.8760   -1.1980 c3        1 2U8      0.136700
     23 H1          1.4270    0.7510   -4.2200 ho        1 2U8      0.401000
     24 H2          1.4160    1.3960   -1.4800 ha        1 2U8      0.161000
     25 H3         -1.4960   -0.4670    1.1200 ha        1 2U8      0.132000
     26 H4          3.2190    0.8230    0.1460 ha        1 2U8      0.131000
     27 H5          2.6750   -0.4060    2.2450 ha        1 2U8      0.130000
     28 H6          0.3830   -2.3600    2.8900 hc        1 2U8      0.043367
     29 H7          0.8960   -0.9400    3.8910 hc        1 2U8      0.043367
     30 H8         -0.8300   -1.0970    3.3560 hc        1 2U8      0.043367
     31 H9          0.9280   -1.4950   -4.0430 hc        1 2U8      0.054200
     32 H10         0.6800   -1.2370   -2.2640 hc        1 2U8      0.054200
     33 H11        -1.6350   -2.0360   -2.3950 hc        1 2U8      0.051700
     34 H12        -0.5560   -3.2480   -3.1910 hc        1 2U8      0.051700
     35 H13        -1.1640   -2.4160   -5.4310 hc        1 2U8      0.066700
     36 H14        -2.6660   -2.8020   -4.4850 hc        1 2U8      0.066700
     37 H15        -2.8240   -0.6860   -5.8100 h1        1 2U8      0.070700
     38 H16        -0.4800    0.2650   -5.7880 hc        1 2U8      0.081700
     39 H17        -2.5580    1.9450   -5.4340 hc        1 2U8      0.072200
     40 H18        -1.1610    2.5150   -4.4060 hc        1 2U8      0.072200
     41 H19        -3.2600    1.8040   -2.8060 h1        1 2U8      0.103700
     42 H20        -2.1510    1.2080   -0.6540 ha        1 2U8      0.135000
     43 H21        -6.4210   -1.0480   -1.8610 h1        1 2U8      0.050700
     44 H22        -5.7820   -0.1710   -0.3650 h1        1 2U8      0.050700
     45 H23        -5.1550   -1.8510   -0.8130 h1        1 2U8      0.050700
     46 C18        -4.0400   -0.8550   -3.0400 c         1 2U8      0.732100
@<TRIPOS>BOND
     1    1    4 ar  
     2    1    6 ar  
     3    1    8 1   
     4    2   18 1   
     5    2   21 1   
     6    2   46 1   
     7    3   14 1   
     8    3   23 1   
     9    4    9 ar  
    10    4   24 1   
    11    5   46 2   
    12    6   11 ar  
    13    6   25 1   
    14    7   22 1   
    15    7   46 1   
    16    8   13 2   
    17    8   42 1   
    18    9   10 ar  
    19    9   26 1   
    20   10   11 ar  
    21   10   27 1   
    22   11   12 1   
    23   12   28 1   
    24   12   29 1   
    25   12   30 1   
    26   13   14 1   
    27   13   21 1   
    28   14   15 1   
    29   14   19 1   
    30   15   16 1   
    31   15   31 1   
    32   15   32 1   
    33   16   17 1   
    34   16   33 1   
    35   16   34 1   
    36   17   18 1   
    37   17   35 1   
    38   17   36 1   
    39   18   19 1   
    40   18   37 1   
    41   19   20 1   
    42   19   38 1   
    43   20   21 1   
    44   20   39 1   
    45   20   40 1   
    46   21   41 1   
    47   22   43 1   
    48   22   44 1   
    49   22   45 1   
@<TRIPOS>SUBSTRUCTURE
     1 2U8         1 TEMP              0 ****  ****    0 ROOT
