@<TRIPOS>MOLECULE
2U9
   43    45     1     0     0
SMALL
bcc


@<TRIPOS>ATOM
      1 C1          0.1230   -0.2700   -0.0840 ca        1 2U9     -0.075300
      2 C2          1.4800   -0.0110    0.1510 ca        1 2U9     -0.103000
      3 C3          1.9310    0.3300    1.4220 ca        1 2U9     -0.154000
      4 C7          0.8500    0.2920    4.8300 c3        1 2U9      0.094100
      5 C8          1.8560    0.2620    5.9390 cc        1 2U9      0.389700
      6 C9          3.2890    0.9500    7.4880 cd        1 2U9      0.187800
      7 C10         3.4360   -0.4410    7.6270 cc        1 2U9     -0.173400
      8 C11         4.0440    1.9050    8.2850 c         1 2U9      0.499600
      9 C12         4.5640    4.3380    8.7690 c3        1 2U9      0.154500
     10 C13         4.6320    5.7330    8.1120 c3        1 2U9     -0.063400
     11 C14         4.9110    6.7130    9.2250 c3        1 2U9     -0.329600
     12 C15         3.9830    4.5250   10.1580 c3        1 2U9     -0.332600
     13 S1          4.3310    6.1380   10.7340 s6        1 2U9      1.335000
     14 O2          3.1260    6.7440   11.0570 o         1 2U9     -0.610300
     15 N1          3.7970    3.3610    7.9290 n4        1 2U9     -0.657800
     16 O1          4.8440    1.6690    9.1800 o         1 2U9     -0.425100
     17 N           2.3720    1.3470    6.5140 nd        1 2U9     -0.616000
     18 S           2.4670   -1.2280    6.5640 ss        1 2U9      0.142700
     19 C4          1.0020    0.4230    2.4680 ca        1 2U9      0.074100
     20 C5         -0.3580    0.1740    2.2540 ca        1 2U9     -0.154000
     21 C6         -0.7870   -0.1740    0.9750 ca        1 2U9     -0.103000
     22 C          -0.3390   -0.6520   -1.4380 c3        1 2U9     -0.060800
     23 H1          2.1990   -0.0790   -0.6800 ha        1 2U9      0.145500
     24 H2          2.9940    0.5390    1.6110 ha        1 2U9      0.140500
     25 H3         -0.0160    0.9570    5.1030 h1        1 2U9      0.075700
     26 H4          0.4810   -0.7480    4.6190 h1        1 2U9      0.075700
     27 H5          4.1100   -0.9110    8.3520 h4        1 2U9      0.221000
     28 H6          5.6150    3.9190    8.8580 hx        1 2U9      0.128700
     29 H7          3.6660    5.9930    7.6030 hc        1 2U9      0.081700
     30 H8          5.4410    5.7580    7.3370 hc        1 2U9      0.081700
     31 H9          6.0170    6.9190    9.2790 h1        1 2U9      0.149200
     32 H10         4.4510    7.7060    8.9630 h1        1 2U9      0.149200
     33 H11         4.4180    3.7540   10.8530 h1        1 2U9      0.141200
     34 H12         2.8720    4.3650   10.1860 h1        1 2U9      0.141200
     35 H13         4.0520    3.4950    6.9410 hn        1 2U9      0.470800
     36 H14        -1.0830    0.2610    3.0750 ha        1 2U9      0.140500
     37 H15        -1.8560   -0.3700    0.7960 ha        1 2U9      0.145500
     38 H16         0.2650   -0.1380   -2.2250 hc        1 2U9      0.053367
     39 H17        -1.4140   -0.3860   -1.5870 hc        1 2U9      0.053367
     40 H18        -0.2290   -1.7580   -1.5800 hc        1 2U9      0.053367
     41 O           1.5100    0.8520    3.6920 os        1 2U9     -0.329900
     42 O3          5.3600    6.0770   11.6590 o         1 2U9     -0.610300
     43 H121        2.7890    3.5460    8.0200 hn        1 2U9      0.470800
@<TRIPOS>BOND
     1    1    2 ar  
     2    1   21 ar  
     3    1   22 1   
     4    2    3 ar  
     5    2   23 1   
     6    3   19 ar  
     7    3   24 1   
     8    4    5 1   
     9    4   25 1   
    10    4   26 1   
    11    4   41 1   
    12    5   17 2   
    13    5   18 1   
    14    6    7 2   
    15    6    8 1   
    16    6   17 1   
    17    7   18 1   
    18    7   27 1   
    19    8   15 1   
    20    8   16 2   
    21    9   10 1   
    22    9   12 1   
    23    9   15 1   
    24    9   28 1   
    25   10   11 1   
    26   10   29 1   
    27   10   30 1   
    28   11   13 1   
    29   11   31 1   
    30   11   32 1   
    31   12   13 1   
    32   12   33 1   
    33   12   34 1   
    34   13   14 2   
    35   13   42 2   
    36   15   35 1   
    37   15   43 1   
    38   19   20 ar  
    39   19   41 1   
    40   20   21 ar  
    41   20   36 1   
    42   21   37 1   
    43   22   38 1   
    44   22   39 1   
    45   22   40 1   
@<TRIPOS>SUBSTRUCTURE
     1 2U9         1 TEMP              0 ****  ****    0 ROOT
