@<TRIPOS>MOLECULE
2UA
   36    37     1     0     0
SMALL
bcc


@<TRIPOS>ATOM
      1 C1         -4.6620    0.4650    0.0720 cx        1 2UA     -0.259700
      2 C2         -5.7030    0.7390   -0.9890 cx        1 2UA     -0.100900
      3 C3         -5.9150   -0.3760   -0.0180 cx        1 2UA     -0.100900
      4 C4         -3.3640   -0.1320   -0.3280 c         1 2UA      0.596100
      5 C5         -2.1940    0.2960    0.5150 c3        1 2UA     -0.178400
      6 C6         -0.9190   -0.4340    0.1600 c3        1 2UA     -0.118400
      7 C7          0.3290    0.2650    0.7290 c3        1 2UA      0.164500
      8 C8          1.5620   -0.4870    0.2030 c3        1 2UA     -0.065400
      9 C9          2.8510    0.2590    0.4670 c3        1 2UA     -0.134700
     10 C10         3.0360    1.5050   -0.4100 c3        1 2UA     -0.091400
     11 C11         4.3820    1.3120   -1.1460 c3        1 2UA      0.093000
     12 N1          4.8810    0.0140   -0.7650 n         1 2UA     -0.590900
     13 C12         4.0570   -0.6330    0.1410 c         1 2UA      0.695500
     14 O1          4.2870   -1.7580    0.6110 o         1 2UA     -0.634500
     15 O2         -3.2540   -0.9110   -1.2810 o         1 2UA     -0.534100
     16 N           0.3490    0.4170    2.1710 n3        1 2UA     -0.908800
     17 H1         -4.5740    1.1810    0.9130 hc        1 2UA      0.089700
     18 H2         -6.3080    1.6590   -0.9040 hc        1 2UA      0.081950
     19 H3         -5.4550    0.4900   -2.0380 hc        1 2UA      0.081950
     20 H4         -5.8190   -1.4180   -0.3760 hc        1 2UA      0.081950
     21 H5         -6.6740   -0.2720    0.7770 hc        1 2UA      0.081950
     22 H6         -2.0580    1.4030    0.3760 hc        1 2UA      0.064700
     23 H7         -0.9710   -1.4900    0.5330 hc        1 2UA      0.062200
     24 H8          0.3560    1.3150    0.3050 h1        1 2UA      0.054700
     25 H9          1.6270   -1.5020    0.6790 hc        1 2UA      0.059700
     26 H10         1.4350   -0.6400   -0.9010 hc        1 2UA      0.059700
     27 H11         2.9200    0.5350    1.5540 hc        1 2UA      0.101700
     28 H12         2.2050    1.6080   -1.1480 hc        1 2UA      0.056700
     29 H13         3.0630    2.4290    0.2140 hc        1 2UA      0.056700
     30 H14         4.2380    1.3630   -2.2600 h1        1 2UA      0.039200
     31 H15         5.1140    2.1150   -0.8540 h1        1 2UA      0.039200
     32 H16         5.7320   -0.3490   -1.1040 hn        1 2UA      0.331500
     33 H17        -0.5160    0.8060    2.4900 hn        1 2UA      0.349300
     34 H18        -2.4600    0.1220    1.5920 hc        1 2UA      0.064700
     35 H19        -0.8260   -0.4870   -0.9580 hc        1 2UA      0.062200
     36 H20         0.4980   -0.4640    2.6220 hn        1 2UA      0.349300
@<TRIPOS>BOND
     1    1    2 1   
     2    1    3 1   
     3    1    4 1   
     4    1   17 1   
     5    2    3 1   
     6    2   18 1   
     7    2   19 1   
     8    3   20 1   
     9    3   21 1   
    10    4    5 1   
    11    4   15 2   
    12    5    6 1   
    13    5   22 1   
    14    5   34 1   
    15    6    7 1   
    16    6   23 1   
    17    6   35 1   
    18    7    8 1   
    19    7   16 1   
    20    7   24 1   
    21    8    9 1   
    22    8   25 1   
    23    8   26 1   
    24    9   10 1   
    25    9   13 1   
    26    9   27 1   
    27   10   11 1   
    28   10   28 1   
    29   10   29 1   
    30   11   12 1   
    31   11   30 1   
    32   11   31 1   
    33   12   13 1   
    34   12   32 1   
    35   13   14 2   
    36   16   33 1   
    37   16   36 1   
@<TRIPOS>SUBSTRUCTURE
     1 2UA         1 TEMP              0 ****  ****    0 ROOT
