@<TRIPOS>MOLECULE
2UB
   19    19     1     0     0
SMALL
bcc


@<TRIPOS>ATOM
      1 OAL         1.1690   -0.4570    0.8730 o         1 2UB     -0.811300
      2 CAJ         1.9270   -0.6810   -0.1120 c         1 2UB      0.899800
      3 OAM         2.7760   -1.6140   -0.1580 o         1 2UB     -0.811300
      4 CAI         1.8770    0.2720   -1.2980 ce        1 2UB      0.030400
      5 SAK         3.2730    1.2530   -1.4800 sh        1 2UB     -0.385400
      6 CAG         0.9070    0.4240   -2.2120 cf        1 2UB     -0.179200
      7 CAE        -0.3690   -0.2540   -2.3170 ca        1 2UB      0.009200
      8 CAD        -0.9780   -0.3310   -3.5850 ca        1 2UB     -0.128500
      9 CAC        -2.2140   -0.9460   -3.7530 ca        1 2UB     -0.134000
     10 CAB        -2.8640   -1.4910   -2.6440 ca        1 2UB     -0.005600
     11 CL         -4.3870   -2.2430   -2.8430 cl        1 2UB     -0.150400
     12 CAA        -2.2800   -1.4240   -1.3770 ca        1 2UB     -0.134000
     13 CAF        -1.0420   -0.8070   -1.2160 ca        1 2UB     -0.128500
     14 H2          1.0780    1.1490   -3.0340 ha        1 2UB      0.102000
     15 H4         -0.4640    0.0950   -4.4590 ha        1 2UB      0.166000
     16 H5         -2.6720   -1.0020   -4.7500 ha        1 2UB      0.130000
     17 H6         -2.7910   -1.8570   -0.5040 ha        1 2UB      0.130000
     18 H7         -0.5760   -0.7530   -0.2110 ha        1 2UB      0.166000
     19 H8          4.0590    0.6560   -0.5870 hs        1 2UB      0.235800
@<TRIPOS>BOND
     1    1    2 1   
     2    2    3 1   
     3    2    4 1   
     4    4    5 1   
     5    4    6 2   
     6    5   19 1   
     7    6    7 1   
     8    6   14 1   
     9    7    8 ar  
    10    7   13 ar  
    11    8    9 ar  
    12    8   15 1   
    13    9   10 ar  
    14    9   16 1   
    15   10   11 1   
    16   10   12 ar  
    17   12   13 ar  
    18   12   17 1   
    19   13   18 1   
@<TRIPOS>SUBSTRUCTURE
     1 2UB         1 TEMP              0 ****  ****    0 ROOT
