@<TRIPOS>MOLECULE
2UB
   19    19     1     0     0
SMALL
bcc


@<TRIPOS>ATOM
      1 OAL         1.1230   -0.4440    0.8960 o         1 2UB     -0.811300
      2 CAJ         1.9020   -0.6350   -0.0790 c         1 2UB      0.899800
      3 OAM         2.7790   -1.5410   -0.1200 o         1 2UB     -0.811300
      4 CAI         1.8430    0.3290   -1.2560 ce        1 2UB      0.030400
      5 SAK         3.2100    1.3530   -1.4050 sh        1 2UB     -0.385400
      6 CAG         0.8830    0.4610   -2.1850 cf        1 2UB     -0.179200
      7 CAE        -0.3700   -0.2550   -2.3170 ca        1 2UB      0.009200
      8 CAD        -0.9560   -0.3370   -3.5950 ca        1 2UB     -0.128500
      9 CAC        -2.1700   -0.9870   -3.7900 ca        1 2UB     -0.134000
     10 CAB        -2.8210   -1.5630   -2.6970 ca        1 2UB     -0.005600
     11 Cl         -4.3170   -2.3590   -2.9290 cl        1 2UB     -0.150400
     12 CAA        -2.2590   -1.4930   -1.4200 ca        1 2UB     -0.134000
     13 CAF        -1.0430   -0.8400   -1.2330 ca        1 2UB     -0.128500
     14 H2          1.0450    1.1990   -2.9970 ha        1 2UB      0.102000
     15 H4         -0.4420    0.1140   -4.4570 ha        1 2UB      0.166000
     16 H5         -2.6100   -1.0470   -4.7950 ha        1 2UB      0.130000
     17 H6         -2.7700   -1.9500   -0.5600 ha        1 2UB      0.130000
     18 H7         -0.5950   -0.7830   -0.2200 ha        1 2UB      0.166000
     19 H8          4.0000    0.7710   -0.5060 hs        1 2UB      0.235800
@<TRIPOS>BOND
     1    1    2 1   
     2    2    3 1   
     3    2    4 1   
     4    4    5 1   
     5    4    6 2   
     6    5   19 1   
     7    6    7 1   
     8    6   14 1   
     9    7    8 ar  
    10    7   13 ar  
    11    8    9 ar  
    12    8   15 1   
    13    9   10 ar  
    14    9   16 1   
    15   10   11 1   
    16   10   12 ar  
    17   12   13 ar  
    18   12   17 1   
    19   13   18 1   
@<TRIPOS>SUBSTRUCTURE
     1 2UB         1 TEMP              0 ****  ****    0 ROOT
