@<TRIPOS>MOLECULE
2UC
   29    28     1     0     0
SMALL
bcc


@<TRIPOS>ATOM
      1 C8         -0.5180   -0.5570    0.5670 c2        1 2UC     -0.275000
      2 C5          0.7340   -0.0800    0.7010 c2        1 2UC     -0.051000
      3 C6          1.3540    2.1190    2.4820 c2        1 2UC     -0.520000
      4 N1         -0.5580   -1.4790   -1.6530 n4        1 2UC     -0.081000
      5 C2          2.7720   -2.0810    0.4270 c2        1 2UC      0.261000
      6 N2         -2.1180   -0.9030   -3.5260 n2        1 2UC     -0.074000
      7 N3         -0.4440   -2.5270   -3.9400 n4        1 2UC     -0.057000
      8 C4          1.9660    0.8570    2.7060 c1        1 2UC      0.103000
      9 O1          1.9090   -2.1000   -0.4710 o         1 2UC     -0.463000
     10 C3          1.5910   -0.3250    1.8910 c3        1 2UC     -0.175000
     11 C7          0.5840    2.4240    1.4510 c1        1 2UC      0.276000
     12 C9         -1.2320   -0.4550   -0.7260 c3        1 2UC     -0.057000
     13 C10        -1.1380   -1.5450   -3.0240 c2        1 2UC      0.012000
     14 H1          1.2190    0.4960   -0.1110 ha        1 2UC      0.137000
     15 H2          1.6160    2.8870    3.2540 ha        1 2UC      0.256000
     16 H3         -0.6130   -2.4010   -1.1880 hn        1 2UC      0.289000
     17 H4          3.5560   -2.8750    0.4620 h4        1 2UC      0.147000
     18 H5         -2.6620   -0.2250   -3.0230 hn        1 2UC      0.288000
     19 H6         -0.8740   -2.4850   -4.8880 hn        1 2UC      0.301333
     20 H7          0.5560   -2.2940   -4.0280 hn        1 2UC      0.301333
     21 H8          1.0460   -0.9940    2.6340 hc        1 2UC      0.172000
     22 H9          3.3440   -1.4740    2.4070 hc        1 2UC      0.165000
     23 H10         3.6320   -0.2690    1.0970 hc        1 2UC      0.165000
     24 H11        -1.0470   -1.0800    1.3820 ha        1 2UC      0.188000
     25 H12        -2.3190   -0.7310   -0.6270 hx        1 2UC      0.158500
     26 H13        -1.1210    0.5600   -1.2040 hx        1 2UC      0.158500
     27 C1          2.8870   -1.0280    1.4770 c3        1 2UC     -0.218000
     28 H121        0.4550   -1.2290   -1.6880 hn        1 2UC      0.289000
     29 H33        -0.5490   -3.4870   -3.5810 hn        1 2UC      0.301333
@<TRIPOS>BOND
     1    1    2 1   
     2    1   12 1   
     3    1   24 1   
     4    2   10 1   
     5    2   14 1   
     6    3    8 1   
     7    3   11 1   
     8    3   15 1   
     9    4   12 1   
    10    4   13 1   
    11    4   16 1   
    12    4   28 1   
    13    5    9 1   
    14    5   17 1   
    15    5   27 1   
    16    6   13 1   
    17    6   18 1   
    18    7   13 1   
    19    7   19 1   
    20    7   20 1   
    21    7   29 1   
    22    8   10 1   
    23   10   21 1   
    24   10   27 1   
    25   12   25 1   
    26   12   26 1   
    27   22   27 1   
    28   23   27 1   
@<TRIPOS>SUBSTRUCTURE
     1 2UC         1 TEMP              0 ****  ****    0 ROOT
