@<TRIPOS>MOLECULE
2UC
   29    30     1     0     0
SMALL
bcc


@<TRIPOS>ATOM
      1 C8          0.6220   -0.4740   -0.3290 c2        1 2UC     -0.264000
      2 C5          1.9100   -0.7850   -0.0100 c2        1 2UC      0.030000
      3 C6         -0.3810   -1.4400    1.7660 c1        1 2UC      0.224000
      4 N1         -0.9710   -1.5380   -1.8020 ny        1 2UC     -0.085000
      5 C2          4.5550   -0.2120    1.4000 c2        1 2UC      0.196000
      6 N2         -1.7770   -0.6990   -4.0180 n2        1 2UC     -0.068000
      7 N3         -3.2180   -2.1310   -2.8000 nz        1 2UC     -0.057000
      8 C4          0.7420   -0.5240    2.0700 c3        1 2UC     -0.270000
      9 O1          4.7040   -0.8630    0.3640 o         1 2UC     -0.302000
     10 C3          2.1140   -0.8600    1.4840 c3        1 2UC     -0.055000
     11 C7         -0.1990   -0.2290    0.8870 c3        1 2UC     -0.370000
     12 C9          0.0140   -0.3550   -1.6520 c3        1 2UC     -0.016000
     13 C10        -1.9180   -1.3750   -2.9470 c2        1 2UC      0.012000
     14 H1          2.7560   -0.9790   -0.6870 ha        1 2UC      0.211000
     15 H2          0.7520    0.0730    3.0020 hc        1 2UC      0.208000
     16 H3         -0.4230   -2.4020   -1.9370 hn        1 2UC      0.280500
     17 H4          5.4120    0.2250    1.9590 h4        1 2UC      0.145000
     18 H5         -0.9650   -0.1520   -4.2380 hn        1 2UC      0.290000
     19 H6         -3.8020   -1.9850   -3.6510 hn        1 2UC      0.303333
     20 H7         -3.7460   -1.7830   -1.9860 hn        1 2UC      0.303333
     21 H8          2.3990   -1.9210    1.7490 hc        1 2UC      0.165000
     22 H9          3.2680   -0.0370    3.1100 hc        1 2UC      0.140000
     23 H10         2.9400    1.1390    1.7730 hc        1 2UC      0.140000
     24 H11        -0.9010    0.6190    0.8770 hc        1 2UC      0.177000
     25 H12        -0.5960    0.5910   -1.7400 hx        1 2UC      0.158000
     26 H13         0.7680   -0.4280   -2.4860 hx        1 2UC      0.158000
     27 C1          3.2010    0.0680    1.9910 c3        1 2UC     -0.237000
     28 H121       -1.4670   -1.6140   -0.8950 hn        1 2UC      0.280500
     29 H33        -3.0410   -3.1410   -2.7020 hn        1 2UC      0.303333
@<TRIPOS>BOND
     1    1    2 1   
     2    1   11 1   
     3    1   12 1   
     4    2   10 1   
     5    2   14 1   
     6    3    8 1   
     7    3   11 1   
     8    4   12 1   
     9    4   13 1   
    10    4   16 1   
    11    4   28 1   
    12    5    9 1   
    13    5   17 1   
    14    5   27 1   
    15    6   13 1   
    16    6   18 1   
    17    7   13 1   
    18    7   19 1   
    19    7   20 1   
    20    7   29 1   
    21    8   10 1   
    22    8   11 1   
    23    8   15 1   
    24   10   21 1   
    25   10   27 1   
    26   11   24 1   
    27   12   25 1   
    28   12   26 1   
    29   22   27 1   
    30   23   27 1   
@<TRIPOS>SUBSTRUCTURE
     1 2UC         1 TEMP              0 ****  ****    0 ROOT
