@<TRIPOS>MOLECULE
2UC
   29    29     1     0     0
SMALL
bcc


@<TRIPOS>ATOM
      1 C8         -0.7210   -0.3480    0.3070 c3        1 2UC     -0.139000
      2 C5          0.4550    0.3680    0.9080 cx        1 2UC     -0.147000
      3 C6          0.6700    0.5070    3.6190 c2        1 2UC     -0.501000
      4 N1         -1.3470   -1.4920   -1.8220 n3        1 2UC     -0.312000
      5 C2          3.4350   -0.3350   -0.4870 c2        1 2UC      0.219000
      6 N2          0.2250   -2.2370   -3.6050 n2        1 2UC     -0.204000
      7 N3         -2.0230   -2.9480   -3.6810 n4        1 2UC     -0.050000
      8 C4          0.8660    0.2310    2.3110 cu        1 2UC      0.205000
      9 O1          2.6220   -0.8310   -1.2680 o         1 2UC     -0.326000
     10 C3          1.7040   -0.4190    1.3000 cx        1 2UC     -0.123000
     11 C7         -0.3230    1.2000    4.2530 c1        1 2UC      0.689000
     12 C9         -0.2720   -0.8830   -1.0600 c3        1 2UC     -0.067000
     13 C10        -0.9190   -2.1310   -3.0260 c2        1 2UC      0.087000
     14 H1          0.6020    1.3810    0.4540 hc        1 2UC      0.190000
     15 H2         -1.5820    0.3650    0.2000 hc        1 2UC      0.122500
     16 H3         -1.0590   -1.1970    0.9570 hc        1 2UC      0.122500
     17 H4          4.4940   -0.1360   -0.7670 h4        1 2UC      0.156000
     18 H5          1.0140   -1.7360   -3.2470 hn        1 2UC      0.252000
     19 H6         -1.6380   -3.4770   -4.4800 hn        1 2UC      0.278667
     20 H7         -2.7630   -2.3240   -4.0180 hn        1 2UC      0.278667
     21 H8          1.6390   -1.5370    1.2500 hc        1 2UC      0.194000
     22 H9          3.8330   -0.3780    1.6250 hc        1 2UC      0.148500
     23 H10         3.1490    1.1800    0.9960 hc        1 2UC      0.148500
     24 H11         1.4430    0.1170    4.3550 ha        1 2UC      0.272000
     25 H12         0.2120   -0.0380   -1.6360 h1        1 2UC      0.116500
     26 H13         0.5220   -1.6690   -0.8820 h1        1 2UC      0.116500
     27 C1          3.0700    0.0610    0.9220 c3        1 2UC     -0.228000
     28 H121       -2.1460   -0.8960   -1.9320 hn        1 2UC      0.218000
     29 H33        -2.4100   -3.6070   -2.9960 hn        1 2UC      0.278667
@<TRIPOS>BOND
     1    1    2 1   
     2    1   12 1   
     3    1   15 1   
     4    1   16 1   
     5    2    8 1   
     6    2   10 1   
     7    2   14 1   
     8    3    8 1   
     9    3   11 1   
    10    3   24 1   
    11    4   12 1   
    12    4   13 1   
    13    4   28 1   
    14    5    9 1   
    15    5   17 1   
    16    5   27 1   
    17    6   13 1   
    18    6   18 1   
    19    7   13 1   
    20    7   19 1   
    21    7   20 1   
    22    7   29 1   
    23    8   10 1   
    24   10   21 1   
    25   10   27 1   
    26   12   25 1   
    27   12   26 1   
    28   22   27 1   
    29   23   27 1   
@<TRIPOS>SUBSTRUCTURE
     1 2UC         1 TEMP              0 ****  ****    0 ROOT
