@<TRIPOS>MOLECULE
2UD
   23    24     1     0     0
SMALL
bcc


@<TRIPOS>ATOM
      1 OAN        -0.5190    0.3940   -0.2510 o         1 2UD     -0.802300
      2 CAM         0.7310    0.4200   -0.1080 c         1 2UD      0.879600
      3 OAO         1.3750    0.0790    0.9170 o         1 2UD     -0.802300
      4 CAK         1.5610    0.8500   -1.3400 c         1 2UD      0.203400
      5 SAL         1.9770    2.3180   -1.6180 s         1 2UD     -0.445400
      6 CAJ         1.8590   -0.3610   -2.1500 c3        1 2UD     -0.080200
      7 CAI         2.6420   -0.2390   -3.3860 cc        1 2UD     -0.118400
      8 CAE         2.9810   -1.3650   -4.2400 ca        1 2UD     -0.093800
      9 CAF         2.7200   -2.7320   -4.1840 ca        1 2UD     -0.046000
     10 CAA         3.2080   -3.5510   -5.1970 ca        1 2UD     -0.062900
     11 BR          2.8710   -5.3980   -5.1480 br        1 2UD     -0.127100
     12 CAB         3.9560   -3.0260   -6.2690 ca        1 2UD     -0.102000
     13 CAC         4.2360   -1.6720   -6.3580 ca        1 2UD     -0.157000
     14 CAD         3.7520   -0.8300   -5.3450 ca        1 2UD     -0.042200
     15 NAG         3.8660    0.5450   -5.1600 na        1 2UD     -0.202400
     16 CAH         3.1960    0.8940   -3.9790 cd        1 2UD     -0.094100
     17 H2          2.3870   -1.0870   -1.4590 hc        1 2UD      0.089700
     18 H3          0.8610   -0.8330   -2.3990 hc        1 2UD      0.089700
     19 H4          2.1340   -3.1380   -3.3440 ha        1 2UD      0.154000
     20 H5          4.3280   -3.7020   -7.0540 ha        1 2UD      0.130000
     21 H6          4.8190   -1.2720   -7.1970 ha        1 2UD      0.124000
     22 H7          4.3380    1.1650   -5.7590 hn        1 2UD      0.289700
     23 H8          3.1460    1.9330   -3.6190 h4        1 2UD      0.217000
@<TRIPOS>BOND
     1    1    2 1   
     2    2    3 1   
     3    2    4 1   
     4    4    5 2   
     5    4    6 1   
     6    6    7 1   
     7    6   17 1   
     8    6   18 1   
     9    7    8 1   
    10    7   16 2   
    11    8    9 ar  
    12    8   14 ar  
    13    9   10 ar  
    14    9   19 1   
    15   10   11 1   
    16   10   12 ar  
    17   12   13 ar  
    18   12   20 1   
    19   13   14 ar  
    20   13   21 1   
    21   14   15 1   
    22   15   16 1   
    23   15   22 1   
    24   16   23 1   
@<TRIPOS>SUBSTRUCTURE
     1 2UD         1 TEMP              0 ****  ****    0 ROOT
