@<TRIPOS>MOLECULE
2UD
   23    24     1     0     0
SMALL
bcc


@<TRIPOS>ATOM
      1 OAN        -0.5480    0.4310   -0.2900 o         1 2UD     -0.801800
      2 CAM         0.6990    0.4130   -0.1230 c         1 2UD      0.879600
      3 OAO         1.3110    0.0290    0.9060 o         1 2UD     -0.801800
      4 CAK         1.5670    0.8400   -1.3300 c         1 2UD      0.203400
      5 SAL         2.0360    2.2990   -1.5690 s         1 2UD     -0.445400
      6 CAJ         1.8410   -0.3630   -2.1590 c3        1 2UD     -0.080200
      7 CAI         2.6530   -0.2420   -3.3770 cc        1 2UD     -0.118400
      8 CAE         2.9780   -1.3630   -4.2440 ca        1 2UD     -0.093800
      9 CAF         2.6760   -2.7220   -4.2180 ca        1 2UD     -0.046000
     10 CAA         3.1630   -3.5370   -5.2360 ca        1 2UD     -0.062900
     11 Br          2.7720   -5.3740   -5.2270 br        1 2UD     -0.127100
     12 CAB         3.9480   -3.0150   -6.2820 ca        1 2UD     -0.102000
     13 CAC         4.2680   -1.6680   -6.3400 ca        1 2UD     -0.157000
     14 CAD         3.7870   -0.8310   -5.3230 ca        1 2UD     -0.042200
     15 NAG         3.9360    0.5370   -5.1110 na        1 2UD     -0.202400
     16 CAH         3.2510    0.8840   -3.9380 cd        1 2UD     -0.094100
     17 H2          2.3280   -1.1210   -1.4740 hc        1 2UD      0.089700
     18 H3          0.8330   -0.7950   -2.4400 hc        1 2UD      0.089700
     19 H4          2.0620   -3.1260   -3.3970 ha        1 2UD      0.154000
     20 H5          4.3170   -3.6870   -7.0710 ha        1 2UD      0.130000
     21 H6          4.8810   -1.2710   -7.1590 ha        1 2UD      0.124000
     22 H7          4.4400    1.1530   -5.6870 hn        1 2UD      0.289700
     23 H8          3.2250    1.9180   -3.5590 h4        1 2UD      0.217000
@<TRIPOS>BOND
     1    1    2 1   
     2    2    3 1   
     3    2    4 1   
     4    4    5 2   
     5    4    6 1   
     6    6    7 1   
     7    6   17 1   
     8    6   18 1   
     9    7    8 1   
    10    7   16 2   
    11    8    9 ar  
    12    8   14 ar  
    13    9   10 ar  
    14    9   19 1   
    15   10   11 1   
    16   10   12 ar  
    17   12   13 ar  
    18   12   20 1   
    19   13   14 ar  
    20   13   21 1   
    21   14   15 1   
    22   15   16 1   
    23   15   22 1   
    24   16   23 1   
@<TRIPOS>SUBSTRUCTURE
     1 2UD         1 TEMP              0 ****  ****    0 ROOT
