@<TRIPOS>MOLECULE
2UE
   29    29     1     0     0
SMALL
bcc


@<TRIPOS>ATOM
      1 C1          0.0670    0.3050    0.0020 c3        1 2UE     -0.201100
      2 N1         -0.7290    0.0150    6.3420 n4        1 2UE     -0.805000
      3 O1          2.0000   -0.9220    0.7550 o         1 2UE     -0.525100
      4 C2          1.4380   -0.3050   -0.1480 c         1 2UE      0.577900
      5 N2          0.0930   -0.2740    8.7180 n4        1 2UE     -0.826600
      6 C3         -0.4760    0.2330    1.3810 ca        1 2UE      0.043700
      7 N3         -2.2390   -0.1920    8.3300 n2        1 2UE     -0.603100
      8 C4         -0.5760   -1.0110    2.0320 ca        1 2UE     -0.113000
      9 C5         -0.8850    1.3960    2.0540 ca        1 2UE     -0.113000
     10 C6         -1.0460   -1.0880    3.3340 ca        1 2UE     -0.074500
     11 C7         -1.4310    0.0830    4.0150 ca        1 2UE     -0.248300
     12 C8         -1.3530    1.3260    3.3600 ca        1 2UE     -0.074500
     13 C9         -1.9500   -0.0060    5.3860 c3        1 2UE      0.213100
     14 C10        -1.0890   -0.1470    7.7830 c2        1 2UE      0.599100
     15 H1         -0.6280   -0.2420   -0.7000 hc        1 2UE      0.111200
     16 H1A         0.1160    1.3720   -0.3530 hc        1 2UE      0.111200
     17 HN1        -0.0980   -0.7420    6.0330 hn        1 2UE      0.474800
     18 H2          1.8980   -0.1520   -1.1490 h4        1 2UE      0.047200
     19 HN2         0.6460   -1.1130    8.4880 hn        1 2UE      0.505133
     20 HN2A       -0.2480   -0.3710    9.6980 hn        1 2UE      0.505133
     21 HN3        -3.1050   -0.1210    7.8270 hn        1 2UE      0.533400
     22 H4         -0.2530   -1.9260    1.5020 ha        1 2UE      0.182000
     23 H5         -0.8370    2.3730    1.5420 ha        1 2UE      0.182000
     24 H6         -1.1380   -2.0720    3.8210 ha        1 2UE      0.144500
     25 H8         -1.6830    2.2460    3.8690 ha        1 2UE      0.144500
     26 H9         -2.4900   -0.9770    5.5730 hx        1 2UE      0.114200
     27 H9A        -2.5960    0.8760    5.6580 hx        1 2UE      0.114200
     28 H12        -0.2410    0.9140    6.1980 hn        1 2UE      0.474800
     29 H23         0.6870    0.5660    8.6670 hn        1 2UE      0.505133
@<TRIPOS>BOND
     1    1    4 1   
     2    1    6 1   
     3    1   15 1   
     4    1   16 1   
     5    2   13 1   
     6    2   14 1   
     7    2   17 1   
     8    2   28 1   
     9    3    4 2   
    10    4   18 1   
    11    5   14 1   
    12    5   19 1   
    13    5   20 1   
    14    5   29 1   
    15    6    8 ar  
    16    6    9 ar  
    17    7   14 2   
    18    7   21 1   
    19    8   10 ar  
    20    8   22 1   
    21    9   12 ar  
    22    9   23 1   
    23   10   11 ar  
    24   10   24 1   
    25   11   12 ar  
    26   11   13 1   
    27   12   25 1   
    28   13   26 1   
    29   13   27 1   
@<TRIPOS>SUBSTRUCTURE
     1 2UE         1 TEMP              0 ****  ****    0 ROOT
