@<TRIPOS>MOLECULE
2UE
   29    29     1     0     0
SMALL
bcc


@<TRIPOS>ATOM
      1 C1          0.0730    0.2430   -0.0020 c3        1 2UE     -0.201100
      2 N1         -0.7310    0.0470    6.3410 ny        1 2UE     -0.805000
      3 O1          2.0040   -0.9740    0.7720 o         1 2UE     -0.525100
      4 C2          1.4440   -0.3690   -0.1410 c         1 2UE      0.577900
      5 N2          0.0870   -0.2100    8.7220 nz        1 2UE     -0.826600
      6 C3         -0.4720    0.1920    1.3770 ca        1 2UE      0.043700
      7 N3         -2.2440   -0.1290    8.3300 n2        1 2UE     -0.603100
      8 C4         -0.5740   -1.0420    2.0460 ca        1 2UE     -0.113000
      9 C5         -0.8810    1.3650    2.0320 ca        1 2UE     -0.113000
     10 C6         -1.0460   -1.1000    3.3480 ca        1 2UE     -0.074500
     11 C7         -1.4300    0.0820    4.0120 ca        1 2UE     -0.248300
     12 C8         -1.3500    1.3150    3.3390 ca        1 2UE     -0.074500
     13 C9         -1.9510    0.0140    5.3840 c3        1 2UE      0.213100
     14 C10        -1.0930   -0.0940    7.7830 c2        1 2UE      0.599100
     15 H1          0.1230    1.3050   -0.3730 hc        1 2UE      0.111200
     16 H1A        -0.6210   -0.3140   -0.6970 hc        1 2UE      0.111200
     17 HN1        -0.2420    0.9430    6.1840 hn        1 2UE      0.474800
     18 H2          1.9060   -0.2330   -1.1430 h4        1 2UE      0.047200
     19 HN2        -0.2550   -0.2920    9.7030 hn        1 2UE      0.505133
     20 HN2A        0.6390   -1.0530    8.5050 hn        1 2UE      0.505133
     21 HN3        -3.1090   -0.0640    7.8250 hn        1 2UE      0.533400
     22 H4         -0.2520   -1.9650    1.5300 ha        1 2UE      0.182000
     23 H5         -0.8300    2.3340    1.5060 ha        1 2UE      0.182000
     24 H6         -1.1400   -2.0760    3.8500 ha        1 2UE      0.144500
     25 H8         -1.6800    2.2430    3.8340 ha        1 2UE      0.144500
     26 H9         -2.5960    0.9010    5.6420 hx        1 2UE      0.114200
     27 H9A        -2.4930   -0.9540    5.5840 hx        1 2UE      0.114200
     28 H12        -0.1010   -0.7160    6.0430 hn        1 2UE      0.474800
     29 H23         0.6830    0.6280    8.6590 hn        1 2UE      0.505133
@<TRIPOS>BOND
     1    1    4 1   
     2    1    6 1   
     3    1   15 1   
     4    1   16 1   
     5    2   13 1   
     6    2   14 1   
     7    2   17 1   
     8    2   28 1   
     9    3    4 2   
    10    4   18 1   
    11    5   14 1   
    12    5   19 1   
    13    5   20 1   
    14    5   29 1   
    15    6    8 ar  
    16    6    9 ar  
    17    7   14 2   
    18    7   21 1   
    19    8   10 ar  
    20    8   22 1   
    21    9   12 ar  
    22    9   23 1   
    23   10   11 ar  
    24   10   24 1   
    25   11   12 ar  
    26   11   13 1   
    27   12   25 1   
    28   13   26 1   
    29   13   27 1   
@<TRIPOS>SUBSTRUCTURE
     1 2UE         1 TEMP              0 ****  ****    0 ROOT
