@<TRIPOS>MOLECULE
2UF
   24    23     1     0     0
SMALL
bcc


@<TRIPOS>ATOM
      1 O6A        -0.1820    1.0900   -0.5900 o         1 2UF     -0.828300
      2 C6          0.8680    0.4240   -0.3770 c         1 2UF      0.893600
      3 O6B         1.1640   -0.1430    0.7130 o         1 2UF     -0.828300
      4 C5          1.8670    0.2970   -1.5570 c3        1 2UF     -0.020900
      5 O5          1.4140    0.9880   -2.7070 oh        1 2UF     -0.644800
      6 C4          3.2470    0.8360   -1.1490 c3        1 2UF      0.124100
      7 O4          3.8600    0.0040   -0.1770 oh        1 2UF     -0.644800
      8 C3          4.2100    0.8820   -2.3500 c3        1 2UF      0.157100
      9 O3          5.5340    0.5230   -2.0090 oh        1 2UF     -0.605800
     10 C2          4.1850    2.2840   -2.9890 c3        1 2UF      0.110100
     11 O2          4.8380    3.1750   -2.0970 oh        1 2UF     -0.602800
     12 C1          4.9150    2.2520   -4.3350 c3        1 2UF      0.091400
     13 O1          4.9640    3.5910   -4.8130 oh        1 2UF     -0.618800
     14 H2          1.9630   -0.7860   -1.8450 h1        1 2UF      0.047700
     15 H3          0.6150    1.4780   -2.4470 ho        1 2UF      0.430000
     16 H4          3.1350    1.8710   -0.7180 h1        1 2UF      0.047700
     17 H5          3.1660   -0.2470    0.4590 ho        1 2UF      0.456000
     18 H6          3.8940    0.1300   -3.1260 h1        1 2UF      0.071700
     19 H7          5.7130    0.9000   -1.1380 ho        1 2UF      0.420000
     20 H8          3.1150    2.6030   -3.1380 h1        1 2UF      0.076700
     21 H9          4.8310    4.0390   -2.5270 ho        1 2UF      0.404000
     22 H10         4.3560    1.6090   -5.0620 h1        1 2UF      0.036700
     23 H11         5.9540    1.8520   -4.1920 h1        1 2UF      0.036700
     24 H12         5.5240    3.5800   -5.5960 ho        1 2UF      0.391000
@<TRIPOS>BOND
     1    1    2 1   
     2    2    3 1   
     3    2    4 1   
     4    4    5 1   
     5    4    6 1   
     6    4   14 1   
     7    5   15 1   
     8    6    7 1   
     9    6    8 1   
    10    6   16 1   
    11    7   17 1   
    12    8    9 1   
    13    8   10 1   
    14    8   18 1   
    15    9   19 1   
    16   10   11 1   
    17   10   12 1   
    18   10   20 1   
    19   11   21 1   
    20   12   13 1   
    21   12   22 1   
    22   12   23 1   
    23   13   24 1   
@<TRIPOS>SUBSTRUCTURE
     1 2UF         1 TEMP              0 ****  ****    0 ROOT
