@<TRIPOS>MOLECULE
2UF
   24    23     1     0     0
SMALL
bcc


@<TRIPOS>ATOM
      1 O6A        -0.1650    0.2030   -0.2690 o         1 2UF     -0.826300
      2 C6          1.0840    0.1170   -0.1180 c         1 2UF      0.892600
      3 O6B         1.6850    0.1030    0.9940 o         1 2UF     -0.826300
      4 C5          1.9410    0.0260   -1.4070 c3        1 2UF     -0.014900
      5 O5          1.1380    0.0360   -2.5730 oh        1 2UF     -0.637800
      6 C4          2.9290    1.2010   -1.4820 c3        1 2UF      0.118100
      7 O4          3.8590    1.1920   -0.4090 oh        1 2UF     -0.676800
      8 C3          3.7670    1.1410   -2.7740 c3        1 2UF      0.107100
      9 O3          4.7920    0.1690   -2.6920 oh        1 2UF     -0.600800
     10 C2          4.3700    2.5180   -3.0980 c3        1 2UF      0.078100
     11 O2          5.4080    2.8760   -2.1930 oh        1 2UF     -0.637800
     12 C1          5.0120    2.5080   -4.4880 c3        1 2UF      0.135400
     13 O1          5.6280    3.7440   -4.7930 oh        1 2UF     -0.618800
     14 H2          2.5180   -0.9370   -1.4150 h1        1 2UF      0.058700
     15 H3          0.2270    0.2240   -2.2900 ho        1 2UF      0.430000
     16 H4          2.3550    2.1690   -1.4530 h1        1 2UF      0.038700
     17 H5          3.4080    0.8400    0.3800 ho        1 2UF      0.472000
     18 H6          3.1080    0.8030   -3.6230 h1        1 2UF      0.099700
     19 H7          5.2470    0.3090   -1.8500 ho        1 2UF      0.415000
     20 H8          3.5660    3.3050   -3.0520 h1        1 2UF      0.044700
     21 H9          5.0930    2.6680   -1.3020 ho        1 2UF      0.436000
     22 H10         4.2250    2.3670   -5.2740 h1        1 2UF      0.050700
     23 H11         5.7670    1.6790   -4.5430 h1        1 2UF      0.050700
     24 H12         6.1870    3.9720   -4.0390 ho        1 2UF      0.413000
@<TRIPOS>BOND
     1    1    2 1   
     2    2    3 1   
     3    2    4 1   
     4    4    5 1   
     5    4    6 1   
     6    4   14 1   
     7    5   15 1   
     8    6    7 1   
     9    6    8 1   
    10    6   16 1   
    11    7   17 1   
    12    8    9 1   
    13    8   10 1   
    14    8   18 1   
    15    9   19 1   
    16   10   11 1   
    17   10   12 1   
    18   10   20 1   
    19   11   21 1   
    20   12   13 1   
    21   12   22 1   
    22   12   23 1   
    23   13   24 1   
@<TRIPOS>SUBSTRUCTURE
     1 2UF         1 TEMP              0 ****  ****    0 ROOT
