@<TRIPOS>MOLECULE
2UG
   41    42     1     0     0
SMALL
bcc


@<TRIPOS>ATOM
      1 C1          0.3170    0.3110   -0.4230 c1        1 2UG     -0.012900
      2 C2          1.7190    0.1480   -0.1620 ce        1 2UG     -0.491500
      3 C3          2.5570    0.0290   -1.3600 ca        1 2UG      0.575100
      4 C11         6.7850    0.5040   -4.7310 c2        1 2UG     -0.199000
      5 C12         2.1710    0.1030    1.1630 ce        1 2UG      0.566600
      6 C13         3.6020   -0.1810    1.5360 c3        1 2UG     -0.088700
      7 C14         4.3440    1.0800    1.8520 cx        1 2UG     -0.113700
      8 C15         4.3520    1.6180    3.2580 cx        1 2UG     -0.130400
      9 C16         5.5910    0.9900    2.6930 cx        1 2UG     -0.130400
     10 C          -0.0080    0.4980    1.9600 cf        1 2UG      0.463800
     11 N6          1.3080    0.2720    2.2200 nf        1 2UG     -0.749000
     12 N1         -0.5040    0.4800    0.6300 nh        1 2UG     -0.266500
     13 N5          3.7280    0.7010   -1.4400 nb        1 2UG     -0.749000
     14 C6          4.4530    0.5550   -2.6170 ca        1 2UG      0.857900
     15 N2          4.0430   -0.1870   -3.7130 nb        1 2UG     -0.759000
     16 C5          2.8640   -0.8210   -3.5870 ca        1 2UG      0.449200
     17 C4          2.0710   -0.7590   -2.4340 ca        1 2UG     -0.371600
     18 N3          5.7310    1.1710   -2.6350 nh        1 2UG     -0.702700
     19 C7          6.3660    1.4600   -3.8740 ce        1 2UG      0.219300
     20 C10         4.2190   -0.6110   -8.1340 c1        1 2UG      0.410800
     21 N4          4.5830   -0.3150   -7.0540 n1        1 2UG     -0.871200
     22 C9          6.8560    3.9810   -4.4000 c1        1 2UG     -0.110500
     23 C8          6.6290    2.8320   -4.1520 cg        1 2UG     -0.202300
     24 H1         -1.4750    0.6240    0.4580 hn        1 2UG      0.308700
     25 H3          4.1080   -0.7130    0.6880 hc        1 2UG      0.067200
     26 H4          3.6320   -0.8740    2.4230 hc        1 2UG      0.067200
     27 H5          5.9120    0.0040    3.0720 hc        1 2UG      0.070200
     28 H6          4.3300    1.8060    1.0140 hc        1 2UG      0.098700
     29 H7          3.7840    1.0800    4.0380 hc        1 2UG      0.070200
     30 H8          4.3220    2.7120    3.4070 hc        1 2UG      0.070200
     31 H9          6.4520    1.6320    2.4350 hc        1 2UG      0.070200
     32 H10        -0.4890    0.7410    3.9310 hn        1 2UG      0.270200
     33 H11        -1.8150    0.5230    2.9230 hn        1 2UG      0.270200
     34 H12         1.1000   -1.2630   -2.3620 ha        1 2UG      0.171000
     35 H13         2.5450   -1.4060   -4.4700 h4        1 2UG      0.027100
     36 H14         5.8430    1.8910   -1.9480 hn        1 2UG      0.435800
     37 H15         7.3160    0.7720   -5.6540 ha        1 2UG      0.135500
     38 H16         4.8740   -0.0720   -6.1590 hn        1 2UG      0.455400
     39 H17         7.0560    4.9980   -4.6230 ha        1 2UG      0.170500
     40 N          -0.8730    0.8230    3.0150 nh        1 2UG     -0.487100
     41 H2          6.6250   -0.5680   -4.5580 ha        1 2UG      0.135500
@<TRIPOS>BOND
     1    1    2 2   
     2    1   12 2   
     3    2    3 1   
     4    2    5 1   
     5    3   13 ar  
     6    3   17 ar  
     7    4   19 2   
     8    4   37 1   
     9    4   41 1   
    10    5    6 1   
    11    5   11 2   
    12    6    7 1   
    13    6   25 1   
    14    6   26 1   
    15    7    8 1   
    16    7    9 1   
    17    7   28 1   
    18    8    9 1   
    19    8   29 1   
    20    8   30 1   
    21    9   27 1   
    22    9   31 1   
    23   10   11 1   
    24   10   12 1   
    25   10   40 2   
    26   12   24 1   
    27   13   14 ar  
    28   14   15 ar  
    29   14   18 1   
    30   15   16 ar  
    31   16   17 ar  
    32   16   35 1   
    33   17   34 1   
    34   18   19 1   
    35   18   36 1   
    36   19   23 1   
    37   20   21 3   
    38   21   38 1   
    39   22   23 3   
    40   22   39 1   
    41   32   40 1   
    42   33   40 1   
@<TRIPOS>SUBSTRUCTURE
     1 2UG         1 TEMP              0 ****  ****    0 ROOT
