@<TRIPOS>MOLECULE
2UG
   41    54     1     0     0
SMALL
bcc


@<TRIPOS>ATOM
      1 C1          0.0000    0.0000    0.0000 c2        1 2UG      0.003000
      2 C2          1.3980    0.0000    0.0000 c2        1 2UG     -0.316000
      3 C3          2.1580    0.0030   -1.2720 c2        1 2UG      0.075000
      4 C11         6.0110    0.3400   -4.4820 c3        1 2UG     -0.062000
      5 C12         2.0610    0.0000    1.2320 c2        1 2UG      0.071000
      6 C13         3.5670    0.0000    1.2890 DU        1 2UG     -0.016000
      7 C14         4.0710    1.4360    1.4470 DU        1 2UG     -0.485000
      8 C15         4.8260    1.7830    2.7320 DU        1 2UG     -0.253000
      9 C16         5.5840    1.6630    1.4080 cx        1 2UG     -0.582000
     10 C           0.0230   -0.0020    2.3010 DU        1 2UG     -0.229000
     11 N6          1.3490   -0.0010    2.3430 n2        1 2UG     -0.164000
     12 N1         -0.6410   -0.0000    1.1550 n2        1 2UG      0.023000
     13 N5          3.2230    0.7860   -1.4220 n2        1 2UG     -0.138000
     14 C6          3.9040    0.7890   -2.5570 c2        1 2UG      0.310000
     15 N2          3.5550    0.0210   -3.5800 n2        1 2UG     -0.211000
     16 C5          2.5060   -0.7830   -3.5020 c3        1 2UG      0.078000
     17 C4          1.7710   -0.8240   -2.3320 c2        1 2UG     -0.161000
     18 N3          5.0090    1.6170   -2.6810 n7        1 2UG     -0.153000
     19 C7          5.8050    1.5510   -3.8220 c3        1 2UG     -0.188000
     20 C10         6.8060    0.3170   -5.6090 c3        1 2UG     -0.135000
     21 N4          7.3670    1.4220   -6.0630 n2        1 2UG      0.336000
     22 C9          7.1970    2.5870   -5.4670 c3        1 2UG     -0.159000
     23 C8          6.4160    2.6960   -4.3350 c2        1 2UG     -0.324000
     24 H1         -0.2240   -0.1110    1.0540 DU        1 2UG      0.209000
     25 H2          5.0590    0.2910   -3.9680 hc        1 2UG      0.232000
     26 H3          3.9390   -0.1070    0.2770 ha        1 2UG      0.160500
     27 H4          3.8970   -0.5930    2.1330 ha        1 2UG      0.160500
     28 H5          4.0180    0.4990    0.9050 DU        1 2UG      0.407000
     29 H6          4.1670    2.0110    1.9020 DU        1 2UG      0.244000
     30 H7          4.9670    0.9640    3.4270 ha        1 2UG      0.118000
     31 H8          5.1460    2.2140    2.2310 DU        1 2UG      0.185000
     32 H9          5.9050    2.5990    0.9670 hc        1 2UG      0.095000
     33 H10         0.2630    0.1030    3.1860 DU        1 2UG      0.293000
     34 H11        -1.5820   -0.4380    3.5810 hn        1 2UG      0.173000
     35 H12         2.1510   -0.7520   -2.4790 h1        1 2UG      0.043000
     36 H13         2.0030   -1.1200   -3.3480 DU        1 2UG      0.134000
     37 H14         4.2670    0.9480   -2.7400 hn        1 2UG      0.097000
     38 H15         6.4170    0.8000   -4.7210 DU        1 2UG      0.092000
     39 H16         7.1230    1.5290   -5.6860 DU        1 2UG     -0.103000
     40 H17         7.0550    3.0900   -5.1150 DU        1 2UG      0.237000
     41 N          -0.6850   -0.0040    3.4880 nv        1 2UG     -0.098000
@<TRIPOS>BOND
     1    1    2 1   
     2    1   12 1   
     3    1   24 1   
     4    2    3 1   
     5    2    5 1   
     6    3   13 1   
     7    3   17 1   
     8    4   19 1   
     9    4   20 1   
    10    4   25 1   
    11    4   38 1   
    12    5    6 1   
    13    5   11 1   
    14    6    7 1   
    15    6   26 1   
    16    6   27 1   
    17    6   28 1   
    18    7    8 1   
    19    7    9 1   
    20    7   28 1   
    21    7   29 1   
    22    8    9 1   
    23    8   29 1   
    24    8   30 1   
    25    8   31 1   
    26    9   31 1   
    27    9   32 1   
    28   10   11 1   
    29   10   12 1   
    30   10   24 1   
    31   10   33 1   
    32   10   41 1   
    33   13   14 1   
    34   14   15 1   
    35   14   18 1   
    36   15   16 1   
    37   16   17 1   
    38   16   35 1   
    39   16   36 1   
    40   17   36 1   
    41   18   19 1   
    42   18   37 1   
    43   19   23 1   
    44   19   38 1   
    45   20   21 1   
    46   20   38 1   
    47   20   39 1   
    48   21   22 1   
    49   22   23 1   
    50   22   39 1   
    51   22   40 1   
    52   23   40 1   
    53   33   41 1   
    54   34   41 1   
@<TRIPOS>SUBSTRUCTURE
     1 2UG         1 TEMP              0 ****  ****    0 ROOT
