@<TRIPOS>MOLECULE
2UH
   61    63     1     0     0
SMALL
bcc


@<TRIPOS>ATOM
      1 O3B         0.0000    0.0000    0.0000 o         1 2UH     -0.288833
      2 PB          1.6110    0.0000    0.0000 p5        1 2UH      0.900900
      3 O1B         2.1470    0.0000    1.5190 o         1 2UH     -0.288833
      4 O2B         2.1040    1.2080   -0.6970 o         1 2UH     -0.288833
      5 O3A         2.1480   -1.3150   -0.7580 os        1 2UH     -0.467800
      6 PA          3.5750   -1.7550   -1.3580 p5        1 2UH      0.987800
      7 O1A         4.5190   -2.2830   -0.1660 o         1 2UH     -0.625500
      8 O2A         4.2140   -0.5930   -2.0160 o         1 2UH     -0.625500
      9 O5'         3.3640   -2.9320   -2.4360 os        1 2UH     -0.497200
     10 C5'         4.4300   -3.4690   -3.2220 c3        1 2UH      0.313400
     11 C4'         3.8860   -4.5660   -4.1390 c3        1 2UH      0.138100
     12 O4'         2.9980   -3.9940   -5.1130 os        1 2UH     -0.370600
     13 C3'         5.0450   -5.2310   -4.9060 c3        1 2UH      0.124100
     14 O3'         5.1120   -6.6250   -4.6020 oh        1 2UH     -0.563800
     15 C2'         4.6880   -5.0150   -6.3960 c3        1 2UH      0.126100
     16 O2'         4.9740   -6.1850   -7.1660 oh        1 2UH     -0.556800
     17 C1'         3.1570   -4.7570   -6.3290 c3        1 2UH      0.145800
     18 N9          2.7130   -3.9810   -7.4890 na        1 2UH      0.270100
     19 C4          2.3710   -4.4820   -8.7150 cc        1 2UH     -0.106200
     20 N3          2.3270   -5.7120   -9.2410 nc        1 2UH     -0.529100
     21 C8          2.5590   -2.6260   -7.5440 cc        1 2UH      0.237400
     22 N7          2.1500   -2.2750   -8.7270 nd        1 2UH     -0.531000
     23 C5          2.0090   -3.3810   -9.4980 cd        1 2UH      0.127800
     24 C6          1.6030   -3.6040  -10.8350 c         1 2UH      0.561000
     25 O6          1.2800   -2.6740  -11.5540 o         1 2UH     -0.695500
     26 N1          1.5820   -4.8740  -11.2960 ns        1 2UH     -0.017400
     27 C2          1.9490   -5.9070  -10.4850 cd        1 2UH     -0.116200
     28 N4          1.9180   -7.1860  -10.9800 ny        1 2UH      0.149000
     29 CAO         2.3070   -8.3120  -10.1260 c3        1 2UH     -0.040200
     30 CAM         2.1850   -9.6160  -10.9160 c3        1 2UH     -0.048400
     31 CAN         2.5910  -10.7910  -10.0240 c3        1 2UH     -0.022200
     32 NAS         2.4740  -12.0410  -10.7790 ny        1 2UH      0.092200
     33 CAY         2.7820  -13.2150  -10.1930 c         1 2UH      0.120100
     34 OAB         3.1560  -13.2360   -9.0390 o         1 2UH     -0.619100
     35 CAL         2.6610  -14.5000  -10.9710 c3        1 2UH     -0.055400
     36 CAA         3.0670  -15.6760  -10.0780 c3        1 2UH      0.024900
     37 H4          4.8680   -2.6810   -3.8230 h1        1 2UH     -0.011300
     38 H5          5.1860   -3.8860   -2.5690 h1        1 2UH     -0.011300
     39 H6          3.3580   -5.3110   -3.5560 h1        1 2UH      0.042700
     40 H7          5.9820   -4.7410   -4.6690 h1        1 2UH      0.016700
     41 H8          5.9300   -6.8140   -4.1720 ho        1 2UH      0.385000
     42 H9          5.2040   -4.1490   -6.7920 h1        1 2UH      0.024700
     43 H10         5.8450   -6.1210   -7.5220 ho        1 2UH      0.380000
     44 H11         2.6180   -5.6940   -6.2610 h2        1 2UH      0.054700
     45 H12         2.7490   -1.9440   -6.7230 h5        1 2UH      0.047100
     46 H13         1.2990   -5.0570  -12.2380 hn        1 2UH      0.148500
     47 H14         0.9800   -7.3600  -11.2810 hn        1 2UH      0.148800
     48 H15         1.6560   -8.3510   -9.2610 hx        1 2UH      0.075200
     49 H16         3.3320   -8.1810   -9.8010 hx        1 2UH      0.075200
     50 H17         2.8350   -9.5770  -11.7810 hc        1 2UH      0.011700
     51 H18         1.1590   -9.7470  -11.2400 hc        1 2UH      0.011700
     52 H19         1.9410  -10.8300   -9.1590 hx        1 2UH      0.062200
     53 H20         3.6170  -10.6600   -9.7000 hx        1 2UH      0.062200
     54 H21         3.0650  -11.9530  -11.5820 hn        1 2UH      0.170800
     55 H22         3.3120  -14.4610  -11.8360 hc        1 2UH      0.002200
     56 H23         1.6360  -14.6300  -11.2960 hc        1 2UH      0.002200
     57 H24         2.4080  -15.7220   -9.2200 hc        1 2UH      0.006033
     58 H25         4.0880  -15.5390   -9.7430 hc        1 2UH      0.006033
     59 H26         2.9920  -16.5980  -10.6410 hc        1 2UH      0.006033
     60 H42         2.5220   -7.2040  -11.7780 hn        1 2UH      0.148800
     61 HAS2        1.5220  -12.1090  -11.0830 hn        1 2UH      0.170800
@<TRIPOS>BOND
     1    1    2 1   
     2    2    3 1   
     3    2    4 1   
     4    2    5 1   
     5    5    6 1   
     6    6    7 1   
     7    6    8 1   
     8    6    9 1   
     9    9   10 1   
    10   10   11 1   
    11   10   37 1   
    12   10   38 1   
    13   11   12 1   
    14   11   13 1   
    15   11   39 1   
    16   12   17 1   
    17   13   14 1   
    18   13   15 1   
    19   13   40 1   
    20   14   41 1   
    21   15   16 1   
    22   15   17 1   
    23   15   42 1   
    24   16   43 1   
    25   17   18 1   
    26   17   44 1   
    27   18   19 1   
    28   18   21 1   
    29   19   20 1   
    30   19   23 2   
    31   20   27 2   
    32   21   22 2   
    33   21   45 1   
    34   22   23 1   
    35   23   24 1   
    36   24   25 2   
    37   24   26 1   
    38   26   27 1   
    39   26   46 1   
    40   27   28 1   
    41   28   29 1   
    42   28   47 1   
    43   28   60 1   
    44   29   30 1   
    45   29   48 1   
    46   29   49 1   
    47   30   31 1   
    48   30   50 1   
    49   30   51 1   
    50   31   32 1   
    51   31   52 1   
    52   31   53 1   
    53   32   33 1   
    54   32   54 1   
    55   32   61 1   
    56   33   34 2   
    57   33   35 1   
    58   35   36 1   
    59   35   55 1   
    60   35   56 1   
    61   36   57 1   
    62   36   58 1   
    63   36   59 1   
@<TRIPOS>SUBSTRUCTURE
     1 2UH         1 TEMP              0 ****  ****    0 ROOT
