@<TRIPOS>MOLECULE
2UJ
   65    67     1     0     0
SMALL
bcc


@<TRIPOS>ATOM
      1 OAB         0.0000    0.0000    0.0000 o         1 2UJ     -0.651100
      2 CBB         1.2130    0.0000    0.0000 c         1 2UJ      0.096100
      3 CAN         1.9660    0.0000    1.3060 c3        1 2UJ     -0.054400
      4 CAA         0.9720    0.0020    2.4680 c3        1 2UJ      0.025900
      5 NAU         1.8880   -0.0070   -1.1670 ny        1 2UJ      0.090200
      6 CAP         1.1550   -0.0130   -2.4350 c3        1 2UJ     -0.028200
      7 CAO         2.1500   -0.0200   -3.5990 c3        1 2UJ     -0.051400
      8 CAQ         1.3850   -0.0270   -4.9230 c3        1 2UJ     -0.025200
      9 N2          2.3370   -0.0340   -6.0370 ny        1 2UJ     -0.036000
     10 C2          1.8820   -0.0400   -7.3280 cc        1 2UJ      0.220100
     11 N3          2.7870   -0.0460   -8.3410 na        1 2UJ     -0.169600
     12 N1          0.5830   -0.0460   -7.5390 nd        1 2UJ     -0.666100
     13 C6          0.0790   -0.0530   -8.7840 c         1 2UJ      0.648000
     14 O6         -1.1290   -0.0580   -8.9680 o         1 2UJ     -0.602100
     15 C5          1.0090   -0.0530   -9.9180 cc        1 2UJ      0.196800
     16 C4          2.3720   -0.0530   -9.6470 cd        1 2UJ     -0.342000
     17 N7          0.8630   -0.0590  -11.2630 nc        1 2UJ     -0.539000
     18 C8          2.0400   -0.0570  -11.8200 cd        1 2UJ      0.261400
     19 N9          3.0020   -0.0600  -10.8530 na        1 2UJ      0.290100
     20 C1'         4.4510   -0.0600  -11.0720 c3        1 2UJ      0.130800
     21 O4'         4.7620    0.3730  -12.4140 os        1 2UJ     -0.348600
     22 C2'         5.0090   -1.5060  -11.0210 c3        1 2UJ      0.121100
     23 O2'         5.3120   -1.8880   -9.6780 oh        1 2UJ     -0.586800
     24 C3'         6.3010   -1.3840  -11.8660 c3        1 2UJ      0.124100
     25 O3'         7.4390   -1.2170  -11.0180 oh        1 2UJ     -0.573800
     26 C4'         6.0750   -0.1220  -12.7210 c3        1 2UJ      0.135100
     27 C5'         6.1640   -0.4780  -14.2070 c3        1 2UJ      0.312400
     28 O5'         6.0690    0.7150  -14.9890 os        1 2UJ     -0.499200
     29 PA          6.1250    0.7160  -16.5980 p5        1 2UJ      0.976800
     30 O1A         4.8410   -0.0620  -17.1790 o         1 2UJ     -0.671000
     31 O2A         7.3590    0.0340  -17.0490 o         1 2UJ     -0.671000
     32 O3A         6.1230    2.2330  -17.1340 os        1 2UJ     -0.500800
     33 PB          6.4630    2.9190  -18.5500 p5        1 2UJ      1.085800
     34 O1B         8.0570    2.9400  -18.7680 o         1 2UJ     -0.504500
     35 O2B         5.8270    2.1430  -19.6390 o         1 2UJ     -0.504500
     36 O3B         5.8990    4.4270  -18.5650 os        1 2UJ     -0.470800
     37 PG          5.5410    5.4760  -19.7340 p5        1 2UJ      0.882900
     38 O1G         4.6550    6.6740  -19.1260 o         1 2UJ     -0.422833
     39 O2G         6.9020    6.0740  -20.3530 o         1 2UJ     -0.422833
     40 O3G         4.7760    4.7880  -20.7980 o         1 2UJ     -0.422833
     41 H1          2.5880   -0.8850    1.3640 hc        1 2UJ     -0.003300
     42 H2          2.5890    0.8840    1.3630 hc        1 2UJ     -0.003300
     43 H3          0.3480   -0.8830    2.4120 hc        1 2UJ      0.002033
     44 H4          1.5130    0.0020    3.4070 hc        1 2UJ      0.002033
     45 H5          0.3490    0.8860    2.4100 hc        1 2UJ      0.002033
     46 H6          2.4690   -0.8210   -1.1630 hn        1 2UJ      0.162800
     47 H7          0.5330    0.8720   -2.4970 hx        1 2UJ      0.054700
     48 H8          0.5320   -0.8970   -2.4880 hx        1 2UJ      0.054700
     49 H9          2.7740    0.8640   -3.5460 hc        1 2UJ      0.007200
     50 H10         2.7720   -0.9050   -3.5360 hc        1 2UJ      0.007200
     51 H11         0.7630    0.8570   -4.9860 hx        1 2UJ      0.065200
     52 H12         0.7620   -0.9120   -4.9760 hx        1 2UJ      0.065200
     53 H13         2.9100    0.7810   -5.9340 hn        1 2UJ      0.186800
     54 H14         3.7650   -0.0430   -8.1320 hn        1 2UJ      0.262800
     55 H15         2.2270   -0.0540  -12.8870 h5        1 2UJ      0.062100
     56 H16         4.9530    0.5660  -10.3450 h2        1 2UJ      0.038700
     57 H17         4.3160   -2.2000  -11.4800 h1        1 2UJ      0.031700
     58 H18         5.3400   -2.8290   -9.6180 ho        1 2UJ      0.391000
     59 H19         6.4190   -2.2540  -12.5010 h1        1 2UJ      0.023700
     60 H20         8.1030   -1.8420  -11.2570 ho        1 2UJ      0.388000
     61 H21         6.8170    0.6270  -12.4720 h1        1 2UJ      0.043700
     62 H22         7.1100   -0.9660  -14.4060 h1        1 2UJ     -0.013800
     63 H23         5.3510   -1.1450  -14.4670 h1        1 2UJ     -0.013800
     64 HAU2        2.4710    0.8070   -1.1710 hn        1 2UJ      0.162800
     65 H221        2.9080   -0.8480   -5.9260 hn        1 2UJ      0.186800
@<TRIPOS>BOND
     1    1    2 2   
     2    2    3 1   
     3    2    5 1   
     4    3    4 1   
     5    3   41 1   
     6    3   42 1   
     7    4   43 1   
     8    4   44 1   
     9    4   45 1   
    10    5    6 1   
    11    5   46 1   
    12    5   64 1   
    13    6    7 1   
    14    6   47 1   
    15    6   48 1   
    16    7    8 1   
    17    7   49 1   
    18    7   50 1   
    19    8    9 1   
    20    8   51 1   
    21    8   52 1   
    22    9   10 1   
    23    9   53 1   
    24    9   65 1   
    25   10   11 1   
    26   10   12 2   
    27   11   16 1   
    28   11   54 1   
    29   12   13 1   
    30   13   14 2   
    31   13   15 1   
    32   15   16 2   
    33   15   17 1   
    34   16   19 1   
    35   17   18 2   
    36   18   19 1   
    37   18   55 1   
    38   19   20 1   
    39   20   21 1   
    40   20   22 1   
    41   20   56 1   
    42   21   26 1   
    43   22   23 1   
    44   22   24 1   
    45   22   57 1   
    46   23   58 1   
    47   24   25 1   
    48   24   26 1   
    49   24   59 1   
    50   25   60 1   
    51   26   27 1   
    52   26   61 1   
    53   27   28 1   
    54   27   62 1   
    55   27   63 1   
    56   28   29 1   
    57   29   30 1   
    58   29   31 1   
    59   29   32 1   
    60   32   33 1   
    61   33   34 1   
    62   33   35 1   
    63   33   36 1   
    64   36   37 1   
    65   37   38 1   
    66   37   39 1   
    67   37   40 1   
@<TRIPOS>SUBSTRUCTURE
     1 2UJ         1 TEMP              0 ****  ****    0 ROOT
