@<TRIPOS>MOLECULE
2UK
   67    69     1     0     0
SMALL
bcc


@<TRIPOS>ATOM
      1 OAB         0.0000    0.0000    0.0000 o         1 2UK     -0.588100
      2 CBB         1.2130    0.0000    0.0000 c         1 2UK      0.167100
      3 CAN         1.9670    0.0000    1.3050 c3        1 2UK     -0.067400
      4 CAA         0.9730    0.0080    2.4680 c3        1 2UK      0.023900
      5 NAU         1.8870   -0.0060   -1.1670 ny        1 2UK      0.067200
      6 CAP         1.1540   -0.0130   -2.4360 c3        1 2UK     -0.022200
      7 CAO         2.1480   -0.0200   -3.5990 c3        1 2UK     -0.048400
      8 CAQ         1.3830   -0.0260   -4.9250 c3        1 2UK     -0.027200
      9 N2          2.3350   -0.0330   -6.0380 ny        1 2UK      0.015000
     10 C2          1.8780   -0.0400   -7.3280 cc        1 2UK      0.201100
     11 N3          2.7830   -0.0500   -8.3410 na        1 2UK     -0.166600
     12 N1          0.5800   -0.0410   -7.5410 nd        1 2UK     -0.654100
     13 C6          0.0740   -0.0470   -8.7840 c         1 2UK      0.644000
     14 O6         -1.1330   -0.0480   -8.9670 o         1 2UK     -0.584100
     15 C5          1.0040   -0.0540   -9.9180 cc        1 2UK      0.202800
     16 C4          2.3670   -0.0580   -9.6480 cd        1 2UK     -0.343000
     17 N7          0.8580   -0.0600  -11.2640 nc        1 2UK     -0.530000
     18 C8          2.0340   -0.0640  -11.8210 cd        1 2UK      0.258400
     19 N9          2.9980   -0.0680  -10.8540 na        1 2UK      0.286100
     20 C1'         4.4460   -0.0730  -11.0740 c3        1 2UK      0.127800
     21 O4'         4.7580    0.4690  -12.3760 os        1 2UK     -0.359600
     22 C2'         4.9800   -1.5220  -11.1110 c3        1 2UK      0.114100
     23 O2'         5.5330   -1.8830   -9.8440 oh        1 2UK     -0.574800
     24 C3'         6.0790   -1.4900  -12.1950 c3        1 2UK      0.134100
     25 O3'         7.3480   -1.8290  -11.6320 oh        1 2UK     -0.560800
     26 C4'         6.0800   -0.0260  -12.6870 c3        1 2UK      0.144100
     27 C5'         6.3290    0.0310  -14.1960 c3        1 2UK      0.319400
     28 O5'         6.4410    1.3940  -14.6100 os        1 2UK     -0.511200
     29 PA          6.7060    1.8280  -16.1370 p5        1 2UK      0.987800
     30 O1A         5.4450    1.3990  -17.0420 o         1 2UK     -0.618500
     31 O2A         7.9250    1.1530  -16.6370 o         1 2UK     -0.618500
     32 O3A         6.9050    3.4240  -16.2150 os        1 2UK     -0.522800
     33 PB          7.4830    4.4250  -17.3350 p5        1 2UK      0.824700
     34 O1B         6.6060    4.2940  -18.6770 o         1 2UK     -0.451000
     35 O2B         8.8920    4.0740  -17.6290 o         1 2UK     -0.451000
     36 N3B         7.4070    6.0070  -16.7660 ny        1 2UK     -0.233200
     37 PG          8.0050    7.0880  -17.9090 p5        1 2UK      0.659800
     38 O1G         9.5400    6.7300  -18.2350 o         1 2UK     -0.389500
     39 O2G         7.9140    8.5870  -17.3290 o         1 2UK     -0.389500
     40 O3G         7.2010    6.9890  -19.1490 o         1 2UK     -0.389500
     41 H1          2.5940    0.8820    1.3600 hc        1 2UK      0.011200
     42 H2          2.5850   -0.8870    1.3650 hc        1 2UK      0.011200
     43 H3          1.5150    0.0100    3.4060 hc        1 2UK      0.009700
     44 H4          0.3470   -0.8740    2.4150 hc        1 2UK      0.009700
     45 H5          0.3530    0.8950    2.4080 hc        1 2UK      0.009700
     46 H6          2.4690    0.8080   -1.1720 hn        1 2UK      0.189800
     47 H7          0.5310   -0.8980   -2.4880 hx        1 2UK      0.062200
     48 H8          0.5320    0.8710   -2.4980 hx        1 2UK      0.062200
     49 H9          2.7710   -0.9050   -3.5380 hc        1 2UK      0.012700
     50 H10         2.7720    0.8640   -3.5470 hc        1 2UK      0.012700
     51 H11         0.7600    0.8580   -4.9860 hx        1 2UK      0.072700
     52 H12         0.7590   -0.9110   -4.9770 hx        1 2UK      0.072700
     53 H13         2.9070    0.7820   -5.9360 hn        1 2UK      0.185800
     54 H14         3.7620   -0.0500   -8.1320 hn        1 2UK      0.260800
     55 H15         2.2200   -0.0630  -12.8880 h5        1 2UK      0.054100
     56 H16         4.9520    0.4930  -10.3020 h2        1 2UK      0.039700
     57 H17         4.1910   -2.2070  -11.3960 h1        1 2UK      0.021700
     58 H18         5.3600   -2.7950   -9.6740 ho        1 2UK      0.390000
     59 H19         5.8270   -2.1600  -13.0080 h1        1 2UK      0.024700
     60 H20         7.6620   -2.6280  -12.0230 ho        1 2UK      0.388000
     61 H21         6.8290    0.5480  -12.1540 h1        1 2UK      0.041700
     62 H22         7.2470   -0.4940  -14.4300 h1        1 2UK     -0.005800
     63 H23         5.5020   -0.4370  -14.7160 h1        1 2UK     -0.005800
     64 H26         6.4550    6.2370  -16.5620 hn        1 2UK      0.308800
     65 HAU2        2.4690   -0.8210   -1.1630 hn        1 2UK      0.189800
     66 H221        2.9080   -0.8450   -5.9260 hn        1 2UK      0.185800
     67 H3B2        7.9500    6.0810  -15.9280 hn        1 2UK      0.308800
@<TRIPOS>BOND
     1    1    2 2   
     2    2    3 1   
     3    2    5 1   
     4    3    4 1   
     5    3   41 1   
     6    3   42 1   
     7    4   43 1   
     8    4   44 1   
     9    4   45 1   
    10    5    6 1   
    11    5   46 1   
    12    5   65 1   
    13    6    7 1   
    14    6   47 1   
    15    6   48 1   
    16    7    8 1   
    17    7   49 1   
    18    7   50 1   
    19    8    9 1   
    20    8   51 1   
    21    8   52 1   
    22    9   10 1   
    23    9   53 1   
    24    9   66 1   
    25   10   11 1   
    26   10   12 2   
    27   11   16 1   
    28   11   54 1   
    29   12   13 1   
    30   13   14 2   
    31   13   15 1   
    32   15   16 2   
    33   15   17 1   
    34   16   19 1   
    35   17   18 2   
    36   18   19 1   
    37   18   55 1   
    38   19   20 1   
    39   20   21 1   
    40   20   22 1   
    41   20   56 1   
    42   21   26 1   
    43   22   23 1   
    44   22   24 1   
    45   22   57 1   
    46   23   58 1   
    47   24   25 1   
    48   24   26 1   
    49   24   59 1   
    50   25   60 1   
    51   26   27 1   
    52   26   61 1   
    53   27   28 1   
    54   27   62 1   
    55   27   63 1   
    56   28   29 1   
    57   29   30 1   
    58   29   31 1   
    59   29   32 1   
    60   32   33 1   
    61   33   34 1   
    62   33   35 1   
    63   33   36 1   
    64   36   37 1   
    65   36   64 1   
    66   36   67 1   
    67   37   38 1   
    68   37   39 1   
    69   37   40 1   
@<TRIPOS>SUBSTRUCTURE
     1 2UK         1 TEMP              0 ****  ****    0 ROOT
