@<TRIPOS>MOLECULE
2UN
   48    49     1     0     0
SMALL
bcc


@<TRIPOS>ATOM
      1 O7          6.4640    0.1790   -1.1830 o         1 2UN     -0.731867
      2 S1          6.0120    0.4610    0.1260 s6        1 2UN      1.530700
      3 O5          6.9310    0.0640    1.1320 o         1 2UN     -0.731867
      4 O6          5.5330    1.7860    0.2680 o         1 2UN     -0.731867
      5 N1          4.6680   -0.6000    0.4130 nh        1 2UN     -0.719500
      6 C5          3.3680   -0.5200   -0.0140 ca        1 2UN      0.265600
      7 C4          2.4520   -1.5910    0.1890 ca        1 2UN     -0.223500
      8 C2          2.8730    0.6380   -0.6830 ca        1 2UN     -0.223500
      9 C6          1.5670    0.6920   -1.1310 ca        1 2UN     -0.072000
     10 C3          0.6820   -0.3810   -0.9440 ca        1 2UN     -0.212300
     11 C1          1.1480   -1.5150   -0.2730 ca        1 2UN     -0.072000
     12 C19        -0.6840   -0.3330   -1.5180 c3        1 2UN      0.003900
     13 C7         -1.8270   -0.1320   -0.4980 c3        1 2UN     -0.117000
     14 C8         -1.5620    1.1150    0.3180 c         1 2UN      0.644600
     15 O2         -1.4230    1.2620    1.5280 o         1 2UN     -0.493500
     16 O1         -1.4920    2.2410   -0.4720 os        1 2UN     -0.452400
     17 C17        -1.1160    3.4500    0.1860 c3        1 2UN      0.126200
     18 C9         -1.9360   -1.3480    0.3960 c         1 2UN      0.644600
     19 O4         -2.1070   -2.5080   -0.3300 os        1 2UN     -0.452400
     20 C18        -2.1240   -3.7230    0.4160 c3        1 2UN      0.126200
     21 O3         -1.9170   -1.4500    1.6190 o         1 2UN     -0.493500
     22 C10        -3.1320    0.0320   -1.2980 c3        1 2UN     -0.031100
     23 C11        -4.3630    0.1980   -0.4780 ca        1 2UN     -0.089300
     24 C13        -5.2530   -0.8710   -0.3140 ca        1 2UN     -0.117000
     25 C16        -6.4300   -0.7020    0.4120 ca        1 2UN     -0.131000
     26 C12        -6.7310    0.5350    0.9810 ca        1 2UN     -0.130000
     27 C15        -5.8480    1.6030    0.8240 ca        1 2UN     -0.131000
     28 C14        -4.6700    1.4370    0.0980 ca        1 2UN     -0.117000
     29 HN1         4.8640   -1.4160    0.9450 hn        1 2UN      0.409800
     30 H4          2.7820   -2.4960    0.7190 ha        1 2UN      0.146000
     31 H2          3.5430    1.5050   -0.8290 ha        1 2UN      0.146000
     32 H6          1.2120    1.5990   -1.6450 ha        1 2UN      0.111000
     33 H1          0.4610   -2.3610   -0.1060 ha        1 2UN      0.111000
     34 H191       -0.8940   -1.2910   -2.0660 hc        1 2UN      0.058200
     35 H192       -0.7510    0.5140   -2.2550 hc        1 2UN      0.058200
     36 H171       -1.0250    4.1890   -0.6480 h1        1 2UN      0.049033
     37 H172       -1.9130    3.7460    0.9100 h1        1 2UN      0.049033
     38 H173       -0.1430    3.3130    0.7190 h1        1 2UN      0.049033
     39 H181       -2.2360   -4.5130   -0.3660 h1        1 2UN      0.049033
     40 H182       -1.1650   -3.8380    0.9780 h1        1 2UN      0.049033
     41 H183       -2.9850   -3.7240    1.1260 h1        1 2UN      0.049033
     42 H101       -3.0100    0.9330   -1.9600 hc        1 2UN      0.071700
     43 H102       -3.2360   -0.8730   -1.9560 hc        1 2UN      0.071700
     44 H13        -5.0120   -1.8510   -0.7550 ha        1 2UN      0.138000
     45 H16        -7.1200   -1.5480    0.5390 ha        1 2UN      0.127000
     46 H12        -7.6580    0.6670    1.5560 ha        1 2UN      0.125000
     47 H15        -6.0760    2.5780    1.2790 ha        1 2UN      0.127000
     48 H14        -3.9640    2.2760   -0.0180 ha        1 2UN      0.138000
@<TRIPOS>BOND
     1    1    2 1   
     2    2    3 1   
     3    2    4 1   
     4    2    5 1   
     5    5    6 1   
     6    5   29 1   
     7    6    7 ar  
     8    6    8 ar  
     9    7   11 ar  
    10    7   30 1   
    11    8    9 ar  
    12    8   31 1   
    13    9   10 ar  
    14    9   32 1   
    15   10   11 ar  
    16   10   12 1   
    17   11   33 1   
    18   12   13 1   
    19   12   34 1   
    20   12   35 1   
    21   13   14 1   
    22   13   18 1   
    23   13   22 1   
    24   14   15 2   
    25   14   16 1   
    26   16   17 1   
    27   17   36 1   
    28   17   37 1   
    29   17   38 1   
    30   18   19 1   
    31   18   21 2   
    32   19   20 1   
    33   20   39 1   
    34   20   40 1   
    35   20   41 1   
    36   22   23 1   
    37   22   42 1   
    38   22   43 1   
    39   23   24 ar  
    40   23   28 ar  
    41   24   25 ar  
    42   24   44 1   
    43   25   26 ar  
    44   25   45 1   
    45   26   27 ar  
    46   26   46 1   
    47   27   28 ar  
    48   27   47 1   
    49   28   48 1   
@<TRIPOS>SUBSTRUCTURE
     1 2UN         1 TEMP              0 ****  ****    0 ROOT
