@<TRIPOS>MOLECULE
2UN
   48    43     1     0     0
SMALL
bcc


@<TRIPOS>ATOM
      1 O7         -0.1810   -2.0470    7.7940 o         1 2UN     -1.055500
      2 S1         -0.8370   -2.2860    6.4560 ss        1 2UN      2.835000
      3 O5         -0.9130   -3.8260    6.4340 o         1 2UN     -1.055500
      4 O6         -2.2110   -1.6670    6.4000 os        1 2UN     -1.053000
      5 N1          0.1190   -1.6930    5.1890 n2        1 2UN     -0.769000
      6 C5         -0.4700   -1.3750    3.9500 c2        1 2UN      0.184000
      7 C4         -0.8630   -0.0730    3.6930 c2        1 2UN     -0.240000
      8 C2         -0.4560   -2.3210    2.9140 c1        1 2UN     -0.207000
      9 C6         -0.8360   -1.9490    1.6320 c1        1 2UN     -0.073000
     10 C3         -1.2260   -0.6560    1.3770 c1        1 2UN     -0.205000
     11 C1         -1.2400    0.2920    2.4180 c1        1 2UN     -0.072000
     12 C19        -1.7330   -0.2650   -0.0410 c3        1 2UN     -0.082000
     13 C7         -0.5710    0.1960   -0.8860 c3        1 2UN     -0.017000
     14 C8          0.4680   -0.9050   -0.9740 c2        1 2UN      0.315500
     15 O2          1.6660   -0.6460   -0.7040 o         1 2UN     -0.304500
     16 O1          0.1390   -2.1350   -1.5740 os        1 2UN     -0.290500
     17 C17         1.2320   -3.0870   -1.5810 c3        1 2UN     -0.063500
     18 C9          0.0660    1.4620   -0.2330 c2        1 2UN      0.315500
     19 O4         -0.7360    2.6380   -0.0200 os        1 2UN     -0.290500
     20 C18         0.0300    3.8140    0.3470 c3        1 2UN     -0.063500
     21 O3          1.2070    1.4610    0.0680 o         1 2UN     -0.304500
     22 C10        -1.0640    0.5430   -2.2880 c3        1 2UN     -0.117000
     23 C11         0.1580    1.0560   -3.1710 c2        1 2UN     -0.082000
     24 C13         0.2840    2.4070   -3.4390 c2        1 2UN     -0.119000
     25 C16         1.2120    2.8480   -4.3730 c1        1 2UN     -0.134000
     26 C12         2.0250    1.9200   -5.0490 c1        1 2UN     -0.129000
     27 C15         1.9030    0.5890   -4.7880 c1        1 2UN     -0.129000
     28 C14         0.9620    0.1390   -3.8400 c1        1 2UN     -0.115000
     29 HN1         1.0270   -1.5490    5.3210 hn        1 2UN      0.205000
     30 H4         -0.7520    0.6470    4.4170 ha        1 2UN      0.118000
     31 H2         -0.2900   -3.2670    3.1190 ha        1 2UN      0.174000
     32 H6         -0.8590   -2.6160    0.9170 ha        1 2UN      0.115000
     33 H1         -1.5050    1.1700    2.2450 ha        1 2UN      0.107000
     34 H191       -2.1590   -1.0530   -0.4660 hc        1 2UN      0.097500
     35 H192       -2.3800    0.4530    0.0340 hc        1 2UN      0.097500
     36 H171        1.8770   -2.8520   -2.3060 h1        1 2UN      0.088333
     37 H172        0.8800   -3.9910   -1.7390 h1        1 2UN      0.088333
     38 H173        1.6770   -3.0600   -0.7370 h1        1 2UN      0.088333
     39 H181       -0.5690    4.5120    0.6600 h1        1 2UN      0.088333
     40 H182        0.6450    3.5890    1.0460 h1        1 2UN      0.088333
     41 H183        0.4920    4.1150   -0.3860 h1        1 2UN      0.088333
     42 H101       -1.7140    1.2190   -2.2310 hc        1 2UN      0.111000
     43 H102       -1.4650   -0.2720   -2.7130 hc        1 2UN      0.111000
     44 H13        -0.3400    3.0300   -3.0520 ha        1 2UN      0.134000
     45 H16         1.3710    3.8560   -4.5000 ha        1 2UN      0.125000
     46 H12         2.7390    2.2370   -5.6460 ha        1 2UN      0.127000
     47 H15         2.4280   -0.0290   -5.2560 ha        1 2UN      0.127000
     48 H14         0.7630   -0.5740   -4.4360 ha        1 2UN      0.142000
@<TRIPOS>BOND
     1    1    2 1   
     2    2    3 1   
     3    5    6 1   
     4    5   29 1   
     5    6    7 1   
     6    6    8 1   
     7    7   11 1   
     8    7   30 1   
     9    8   31 1   
    10    9   10 1   
    11    9   32 1   
    12   10   12 1   
    13   11   33 1   
    14   12   13 1   
    15   12   34 1   
    16   12   35 1   
    17   13   14 1   
    18   13   18 1   
    19   13   22 1   
    20   14   15 1   
    21   14   16 1   
    22   16   17 1   
    23   17   36 1   
    24   17   37 1   
    25   17   38 1   
    26   18   19 1   
    27   18   21 1   
    28   19   20 1   
    29   20   39 1   
    30   20   40 1   
    31   20   41 1   
    32   22   23 1   
    33   22   42 1   
    34   22   43 1   
    35   23   24 1   
    36   23   28 1   
    37   24   25 1   
    38   24   44 1   
    39   25   45 1   
    40   26   27 1   
    41   26   46 1   
    42   27   47 1   
    43   28   48 1   
@<TRIPOS>SUBSTRUCTURE
     1 2UN         1 TEMP              0 ****  ****    0 ROOT
