@<TRIPOS>MOLECULE
2UN
   49    49     1     0     0
SMALL
bcc


@<TRIPOS>ATOM
      1 O7         -0.7700    0.1620   -0.0720 o         1 2UN     -0.578400
      2 S1          0.3510    0.7770   -0.5160 s4        1 2UN      1.809000
      3 O5          1.1500    1.4430    0.3580 o         1 2UN     -0.578400
      4 O6          0.5690    0.9110   -1.8500 o         1 2UN     -0.698200
      5 N1          1.9740   -1.1340   -0.4830 nh        1 2UN     -0.870200
      6 C5          1.5090   -2.4100   -0.0590 ca        1 2UN      0.075600
      7 C4          0.9460   -3.3100   -0.9860 ca        1 2UN     -0.145000
      8 C2          1.5510   -2.7690    1.3040 ca        1 2UN     -0.145000
      9 C6          1.0280   -3.9880    1.7200 ca        1 2UN     -0.091500
     10 C3          0.4630   -4.8790    0.8010 ca        1 2UN     -0.106300
     11 C1          0.4270   -4.5250   -0.5520 ca        1 2UN     -0.091500
     12 C19        -0.1340   -6.1610    1.2620 c3        1 2UN     -0.027100
     13 C7          0.8780   -7.3060    1.4560 c3        1 2UN     -0.115000
     14 C8          1.8860   -6.9200    2.5180 c         1 2UN      0.634600
     15 O2          3.1080   -6.8210    2.4600 o         1 2UN     -0.487000
     16 O1          1.2800   -6.6440    3.7220 os        1 2UN     -0.452400
     17 C17         2.1440   -6.2790    4.7990 c3        1 2UN      0.124200
     18 C9          1.5650   -7.5980    0.1380 c         1 2UN      0.634600
     19 O4          0.6710   -8.0110   -0.8240 os        1 2UN     -0.452400
     20 C18         1.2210   -8.3390   -2.1010 c3        1 2UN      0.124200
     21 O3          2.7470   -7.5140   -0.1810 o         1 2UN     -0.487000
     22 C10         0.0930   -8.5470    1.9210 c3        1 2UN     -0.026100
     23 C11         0.9310   -9.7510    2.1670 ca        1 2UN     -0.102300
     24 C13         1.1860  -10.6590    1.1320 ca        1 2UN     -0.117000
     25 C16         1.9290  -11.8120    1.3760 ca        1 2UN     -0.127000
     26 C12         2.4220  -12.0690    2.6560 ca        1 2UN     -0.120000
     27 C15         2.1730  -11.1680    3.6900 ca        1 2UN     -0.127000
     28 C14         1.4310  -10.0130    3.4490 ca        1 2UN     -0.117000
     29 HN1         2.2980   -1.1620   -1.4350 hn        1 2UN      0.398800
     30 H4          0.9050   -3.0570   -2.0570 ha        1 2UN      0.142000
     31 H2          1.9920   -2.0880    2.0480 ha        1 2UN      0.142000
     32 H6          1.0670   -4.2640    2.7880 ha        1 2UN      0.143000
     33 H1         -0.0110   -5.2210   -1.2860 ha        1 2UN      0.143000
     34 H191       -0.9010   -6.5100    0.5170 hc        1 2UN      0.077200
     35 H192       -0.6530   -5.9960    2.2460 hc        1 2UN      0.077200
     36 H171        1.4440   -6.1150    5.6550 h1        1 2UN      0.052867
     37 H172        2.7010   -5.3460    4.5400 h1        1 2UN      0.052867
     38 H173        2.8620   -7.1080    5.0090 h1        1 2UN      0.052867
     39 H181        1.7400   -7.4500   -2.5340 h1        1 2UN      0.052867
     40 H182        0.3270   -8.6270   -2.7070 h1        1 2UN      0.052867
     41 H183        1.9380   -9.1890   -1.9980 h1        1 2UN      0.052867
     42 H101       -0.6730   -8.7790    1.1310 hc        1 2UN      0.075200
     43 H102       -0.4510   -8.2680    2.8640 hc        1 2UN      0.075200
     44 H13         0.8040  -10.4480    0.1200 ha        1 2UN      0.135500
     45 H16         2.1280  -12.5190    0.5570 ha        1 2UN      0.133000
     46 H12         3.0080  -12.9800    2.8480 ha        1 2UN      0.133000
     47 H15         2.5650  -11.3660    4.6990 ha        1 2UN      0.133000
     48 H14         1.2410   -9.2950    4.2620 ha        1 2UN      0.135500
     49 H121        2.7040   -0.7930    0.1190 hn        1 2UN      0.398800
@<TRIPOS>BOND
     1    1    2 1   
     2    2    3 1   
     3    2    4 2   
     4    5    6 1   
     5    5   29 1   
     6    5   49 1   
     7    6    7 ar  
     8    6    8 ar  
     9    7   11 ar  
    10    7   30 1   
    11    8    9 ar  
    12    8   31 1   
    13    9   10 ar  
    14    9   32 1   
    15   10   11 ar  
    16   10   12 1   
    17   11   33 1   
    18   12   13 1   
    19   12   34 1   
    20   12   35 1   
    21   13   14 1   
    22   13   18 1   
    23   13   22 1   
    24   14   15 2   
    25   14   16 1   
    26   16   17 1   
    27   17   36 1   
    28   17   37 1   
    29   17   38 1   
    30   18   19 1   
    31   18   21 2   
    32   19   20 1   
    33   20   39 1   
    34   20   40 1   
    35   20   41 1   
    36   22   23 1   
    37   22   42 1   
    38   22   43 1   
    39   23   24 ar  
    40   23   28 ar  
    41   24   25 ar  
    42   24   44 1   
    43   25   26 ar  
    44   25   45 1   
    45   26   27 ar  
    46   26   46 1   
    47   27   28 ar  
    48   27   47 1   
    49   28   48 1   
@<TRIPOS>SUBSTRUCTURE
     1 2UN         1 TEMP              0 ****  ****    0 ROOT
