@<TRIPOS>MOLECULE
2UN
   48    49     1     0     0
SMALL
bcc


@<TRIPOS>ATOM
      1 O7         -0.0500   -0.5280    0.6280 o         1 2UN     -0.731867
      2 S1          1.3010   -0.4450    0.2210 s6        1 2UN      1.530700
      3 O5          2.2010   -0.2800    1.3070 o         1 2UN     -0.731867
      4 O6          1.6660   -1.4700   -0.6840 o         1 2UN     -0.731867
      5 N1          1.4610    1.0630   -0.6240 nh        1 2UN     -0.719500
      6 C5          1.0940    1.4070   -1.9000 ca        1 2UN      0.265600
      7 C4          1.1550    2.7560   -2.3520 ca        1 2UN     -0.223500
      8 C2          0.6320    0.4320   -2.8310 ca        1 2UN     -0.223500
      9 C6          0.2400    0.8000   -4.1050 ca        1 2UN     -0.072000
     10 C3          0.2850    2.1360   -4.5290 ca        1 2UN     -0.212300
     11 C1          0.7540    3.1010   -3.6320 ca        1 2UN     -0.072000
     12 C19        -0.2300    2.5150   -5.8670 c3        1 2UN      0.003900
     13 C7          0.8450    2.8870   -6.9120 c3        1 2UN     -0.117000
     14 C8          1.8390    1.7530   -7.0390 c         1 2UN      0.644600
     15 O2          3.0520    1.7310   -6.8550 o         1 2UN     -0.493500
     16 O1          1.2360    0.5840   -7.4460 os        1 2UN     -0.452400
     17 C17         2.0650   -0.5780   -7.4710 c3        1 2UN      0.126200
     18 C9          1.5380    4.1680   -6.5010 c         1 2UN      0.644600
     19 O4          0.6430    5.1990   -6.3100 os        1 2UN     -0.452400
     20 C18         1.1870    6.4260   -5.8260 c3        1 2UN      0.126200
     21 O3          2.7280    4.4210   -6.3390 o         1 2UN     -0.493500
     22 C10         0.1230    3.1050   -8.2540 c3        1 2UN     -0.031100
     23 C11         0.9980    3.5140   -9.3860 ca        1 2UN     -0.089300
     24 C13         1.0210    4.8460   -9.8160 ca        1 2UN     -0.117000
     25 C16         1.8030    5.2200  -10.9080 ca        1 2UN     -0.131000
     26 C12         2.5670    4.2680  -11.5810 ca        1 2UN     -0.130000
     27 C15         2.5510    2.9390  -11.1570 ca        1 2UN     -0.131000
     28 C14         1.7700    2.5630  -10.0660 ca        1 2UN     -0.117000
     29 HN1         1.8510    1.8150   -0.1050 hn        1 2UN      0.409800
     30 H4          1.5240    3.5400   -1.6750 ha        1 2UN      0.146000
     31 H2          0.6030   -0.6310   -2.5310 ha        1 2UN      0.146000
     32 H6         -0.1120    0.0250   -4.8030 ha        1 2UN      0.111000
     33 H1          0.8070    4.1540   -3.9540 ha        1 2UN      0.111000
     34 H191       -0.8210    1.6600   -6.2960 hc        1 2UN      0.058200
     35 H192       -0.9160    3.4000   -5.7670 hc        1 2UN      0.058200
     36 H171        2.8530   -0.4590   -8.2530 h1        1 2UN      0.049033
     37 H172        1.3570   -1.4040   -7.7240 h1        1 2UN      0.049033
     38 H173        2.5370   -0.7360   -6.4710 h1        1 2UN      0.049033
     39 H181        1.6920    6.2570   -4.8440 h1        1 2UN      0.049033
     40 H182        0.2930    7.0880   -5.7170 h1        1 2UN      0.049033
     41 H183        1.9150    6.8390   -6.5650 h1        1 2UN      0.049033
     42 H101       -0.3920    2.1410   -8.5200 hc        1 2UN      0.071700
     43 H102       -0.6670    3.8880   -8.0860 hc        1 2UN      0.071700
     44 H13         0.4260    5.6010   -9.2800 ha        1 2UN      0.138000
     45 H16         1.8180    6.2690  -11.2360 ha        1 2UN      0.127000
     46 H12         3.1850    4.5640  -12.4400 ha        1 2UN      0.125000
     47 H15         3.1590    2.1870  -11.6790 ha        1 2UN      0.127000
     48 H14         1.7640    1.5160   -9.7200 ha        1 2UN      0.138000
@<TRIPOS>BOND
     1    1    2 1   
     2    2    3 1   
     3    2    4 1   
     4    2    5 1   
     5    5    6 1   
     6    5   29 1   
     7    6    7 ar  
     8    6    8 ar  
     9    7   11 ar  
    10    7   30 1   
    11    8    9 ar  
    12    8   31 1   
    13    9   10 ar  
    14    9   32 1   
    15   10   11 ar  
    16   10   12 1   
    17   11   33 1   
    18   12   13 1   
    19   12   34 1   
    20   12   35 1   
    21   13   14 1   
    22   13   18 1   
    23   13   22 1   
    24   14   15 2   
    25   14   16 1   
    26   16   17 1   
    27   17   36 1   
    28   17   37 1   
    29   17   38 1   
    30   18   19 1   
    31   18   21 2   
    32   19   20 1   
    33   20   39 1   
    34   20   40 1   
    35   20   41 1   
    36   22   23 1   
    37   22   42 1   
    38   22   43 1   
    39   23   24 ar  
    40   23   28 ar  
    41   24   25 ar  
    42   24   44 1   
    43   25   26 ar  
    44   25   45 1   
    45   26   27 ar  
    46   26   46 1   
    47   27   28 ar  
    48   27   47 1   
    49   28   48 1   
@<TRIPOS>SUBSTRUCTURE
     1 2UN         1 TEMP              0 ****  ****    0 ROOT
