@<TRIPOS>MOLECULE
2UN
   48    49     1     0     0
SMALL
bcc


@<TRIPOS>ATOM
      1 O7         -0.0720   -0.5240    0.6260 o         1 2UN     -0.731867
      2 S1          1.2800   -0.4470    0.2210 s6        1 2UN      1.530700
      3 O5          2.1800   -0.2860    1.3070 o         1 2UN     -0.731867
      4 O6          1.6410   -1.4740   -0.6840 o         1 2UN     -0.731867
      5 N1          1.4480    1.0600   -0.6250 nu        1 2UN     -0.719500
      6 C5          1.0830    1.4060   -1.9010 ca        1 2UN      0.265600
      7 C4          1.1510    2.7550   -2.3520 ca        1 2UN     -0.223500
      8 C2          0.6180    0.4330   -2.8330 ca        1 2UN     -0.223500
      9 C6          0.2290    0.8030   -4.1060 ca        1 2UN     -0.072000
     10 C3          0.2800    2.1400   -4.5300 ca        1 2UN     -0.212300
     11 C1          0.7530    3.1020   -3.6330 ca        1 2UN     -0.072000
     12 C19        -0.2310    2.5200   -5.8690 c3        1 2UN      0.003900
     13 C7          0.8470    2.8890   -6.9120 c3        1 2UN     -0.117000
     14 C8          1.8370    1.7510   -7.0380 c         1 2UN      0.644600
     15 O2          3.0500    1.7240   -6.8530 o         1 2UN     -0.493000
     16 O1          1.2290    0.5840   -7.4470 os        1 2UN     -0.452400
     17 C17         2.0540   -0.5810   -7.4700 c3        1 2UN      0.126200
     18 C9          1.5450    4.1670   -6.5000 c         1 2UN      0.644600
     19 O4          0.6530    5.2020   -6.3100 os        1 2UN     -0.452400
     20 C18         1.2020    6.4260   -5.8250 c3        1 2UN      0.126200
     21 O3          2.7360    4.4150   -6.3350 o         1 2UN     -0.493000
     22 C10         0.1280    3.1100   -8.2560 c3        1 2UN     -0.031100
     23 C11         1.0070    3.5170   -9.3860 ca        1 2UN     -0.089300
     24 C13         1.0360    4.8490   -9.8150 ca        1 2UN     -0.117000
     25 C16         1.8200    5.2200  -10.9060 ca        1 2UN     -0.131000
     26 C12         2.5820    4.2650  -11.5780 ca        1 2UN     -0.130000
     27 C15         2.5600    2.9360  -11.1540 ca        1 2UN     -0.131000
     28 C14         1.7750    2.5630  -10.0650 ca        1 2UN     -0.117000
     29 HN1         1.8410    1.8100   -0.1050 hn        1 2UN      0.409800
     30 H4          1.5240    3.5370   -1.6750 ha        1 2UN      0.146000
     31 H2          0.5830   -0.6300   -2.5320 ha        1 2UN      0.146000
     32 H6         -0.1260    0.0300   -4.8060 ha        1 2UN      0.111000
     33 H1          0.8110    4.1540   -3.9550 ha        1 2UN      0.111000
     34 H191       -0.8240    1.6680   -6.2990 hc        1 2UN      0.058200
     35 H192       -0.9140    3.4080   -5.7700 hc        1 2UN      0.058200
     36 H171        1.3430   -1.4040   -7.7240 h1        1 2UN      0.049033
     37 H172        2.8430   -0.4660   -8.2520 h1        1 2UN      0.049033
     38 H173        2.5250   -0.7410   -6.4700 h1        1 2UN      0.049033
     39 H181        1.9330    6.8360   -6.5620 h1        1 2UN      0.049033
     40 H182        0.3110    7.0920   -5.7180 h1        1 2UN      0.049033
     41 H183        1.7050    6.2550   -4.8430 h1        1 2UN      0.049033
     42 H101       -0.3900    2.1480   -8.5230 hc        1 2UN      0.071700
     43 H102       -0.6590    3.8960   -8.0880 hc        1 2UN      0.071700
     44 H13         0.4420    5.6060   -9.2800 ha        1 2UN      0.138000
     45 H16         1.8400    6.2690  -11.2330 ha        1 2UN      0.127000
     46 H12         3.2030    4.5590  -12.4360 ha        1 2UN      0.125000
     47 H15         3.1660    2.1820  -11.6760 ha        1 2UN      0.127000
     48 H14         1.7650    1.5160   -9.7190 ha        1 2UN      0.138000
@<TRIPOS>BOND
     1    1    2 1   
     2    2    3 1   
     3    2    4 1   
     4    2    5 1   
     5    5    6 1   
     6    5   29 1   
     7    6    7 ar  
     8    6    8 ar  
     9    7   11 ar  
    10    7   30 1   
    11    8    9 ar  
    12    8   31 1   
    13    9   10 ar  
    14    9   32 1   
    15   10   11 ar  
    16   10   12 1   
    17   11   33 1   
    18   12   13 1   
    19   12   34 1   
    20   12   35 1   
    21   13   14 1   
    22   13   18 1   
    23   13   22 1   
    24   14   15 2   
    25   14   16 1   
    26   16   17 1   
    27   17   36 1   
    28   17   37 1   
    29   17   38 1   
    30   18   19 1   
    31   18   21 2   
    32   19   20 1   
    33   20   39 1   
    34   20   40 1   
    35   20   41 1   
    36   22   23 1   
    37   22   42 1   
    38   22   43 1   
    39   23   24 ar  
    40   23   28 ar  
    41   24   25 ar  
    42   24   44 1   
    43   25   26 ar  
    44   25   45 1   
    45   26   27 ar  
    46   26   46 1   
    47   27   28 ar  
    48   27   47 1   
    49   28   48 1   
@<TRIPOS>SUBSTRUCTURE
     1 2UN         1 TEMP              0 ****  ****    0 ROOT
