@<TRIPOS>MOLECULE
2UO
   64    66     1     0     0
SMALL
bcc


@<TRIPOS>ATOM
      1 C1          0.4430    0.2150   -0.3700 c3        1 2UO      0.151100
      2 C2          1.6920    0.9620   -0.8150 c3        1 2UO     -0.096400
      3 C3          2.5610    1.2250    0.4010 c3        1 2UO     -0.045200
      4 C4          1.7750    1.7560    1.5390 c2        1 2UO     -0.157200
      5 C24         0.4350    1.6990    1.6100 ce        1 2UO     -0.087200
      6 C5         -0.3230    2.3810    2.6510 ce        1 2UO     -0.133000
      7 C6         -1.5650    2.8290    2.4150 c2        1 2UO     -0.157200
      8 C7         -2.2780    2.6390    1.1160 c3        1 2UO     -0.033500
      9 C20        -3.4500    1.6980    1.3320 c3        1 2UO     -0.089100
     10 C8         -1.3180    2.1840    0.0020 c3        1 2UO     -0.038700
     11 C9         -0.4380    1.0540    0.5630 c3        1 2UO     -0.020500
     12 C10        -2.0340    1.8380   -1.2870 c3        1 2UO     -0.071400
     13 C11        -2.9420    2.9460   -1.7780 c3        1 2UO     -0.075400
     14 C12        -3.4360    2.6590   -3.1920 c3        1 2UO      0.156100
     15 C13        -4.2720    3.8140   -3.7340 c3        1 2UO     -0.148400
     16 C14        -4.8800    3.4620   -5.0890 c3        1 2UO      0.143100
     17 O3         -3.8810    3.3380   -6.0950 oh        1 2UO     -0.601800
     18 C15        -5.6070    2.1240   -5.0240 c3        1 2UO     -0.130400
     19 C22        -4.7130    1.0550   -4.3970 c3        1 2UO      0.341900
     20 O2         -5.4090   -0.1210   -4.0810 oh        1 2UO     -0.593800
     21 O1         -4.2210    1.4640   -3.1230 os        1 2UO     -0.457600
     22 O4         -0.3280   -0.1920   -1.5090 os        1 2UO     -0.436900
     23 C23        -0.0720   -1.4150   -2.0680 c         1 2UO      0.633100
     24 O5          0.8330   -2.1100   -1.6040 o         1 2UO     -0.543000
     25 C16        -1.0020   -1.7090   -3.2200 c3        1 2UO     -0.107700
     26 C19        -0.1920   -2.1940   -4.4040 c3        1 2UO     -0.093100
     27 C17        -2.0350   -2.7360   -2.7720 c3        1 2UO     -0.072400
     28 C18        -3.2280   -2.7720   -3.6910 c3        1 2UO     -0.102100
     29 H1          0.7610   -0.7080    0.2010 h1        1 2UO      0.073700
     30 H2          2.2500    0.3430   -1.5640 hc        1 2UO      0.054700
     31 H3          1.4030    1.9250   -1.3070 hc        1 2UO      0.054700
     32 H4          3.3690    1.9570    0.1320 hc        1 2UO      0.054700
     33 H5          3.0690    0.2720    0.7160 hc        1 2UO      0.054700
     34 H6          2.3600    2.2340    2.3410 ha        1 2UO      0.125000
     35 H7          0.1790    2.5400    3.6170 ha        1 2UO      0.128000
     36 H8         -2.1380    3.3600    3.1910 ha        1 2UO      0.123000
     37 H9         -2.6930    3.6420    0.8020 hc        1 2UO      0.050700
     38 H10        -4.0590    1.6030    0.4020 hc        1 2UO      0.038700
     39 H11        -3.0990    0.6810    1.6270 hc        1 2UO      0.038700
     40 H12        -4.1060    2.0920    2.1460 hc        1 2UO      0.038700
     41 H13        -0.6400    3.0590   -0.2230 hc        1 2UO      0.046700
     42 H14        -1.1270    0.3180    1.0710 hc        1 2UO      0.066700
     43 H15        -2.6230    0.8910   -1.1670 hc        1 2UO      0.061700
     44 H16        -1.2600    1.6470   -2.0810 hc        1 2UO      0.061700
     45 H17        -2.3890    3.9220   -1.7940 hc        1 2UO      0.047700
     46 H18        -3.8250    3.0600   -1.0990 hc        1 2UO      0.047700
     47 H19        -2.5660    2.4740   -3.8850 h1        1 2UO      0.049700
     48 H20        -5.1010    4.0460   -3.0170 hc        1 2UO      0.057700
     49 H21        -3.6260    4.7220   -3.8280 hc        1 2UO      0.057700
     50 H22        -5.6040    4.2700   -5.3940 h1        1 2UO      0.038700
     51 H23        -3.3960    4.1720   -6.1120 ho        1 2UO      0.402000
     52 H24        -5.8920    1.7950   -6.0550 hc        1 2UO      0.068200
     53 H25        -6.5380    2.2470   -4.4160 hc        1 2UO      0.068200
     54 H26        -3.8720    0.7610   -5.0840 h2        1 2UO      0.084700
     55 H27        -5.9490    0.0530   -3.2980 ho        1 2UO      0.418000
     56 H28        -1.5370   -0.7540   -3.4940 hc        1 2UO      0.084700
     57 H29         0.5010   -1.3930   -4.7550 hc        1 2UO      0.047033
     58 H30        -0.8750   -2.4690   -5.2430 hc        1 2UO      0.047033
     59 H31         0.4130   -3.0900   -4.1210 hc        1 2UO      0.047033
     60 H32        -1.5530   -3.7480   -2.7250 hc        1 2UO      0.049700
     61 H33        -2.3780   -2.4800   -1.7340 hc        1 2UO      0.049700
     62 H34        -3.7410   -1.7770   -3.7250 hc        1 2UO      0.043033
     63 H35        -2.9250   -3.0470   -4.7300 hc        1 2UO      0.043033
     64 H36        -3.9630   -3.5320   -3.3290 hc        1 2UO      0.043033
@<TRIPOS>BOND
     1    1    2 1   
     2    1   11 1   
     3    1   22 1   
     4    1   29 1   
     5    2    3 1   
     6    2   30 1   
     7    2   31 1   
     8    3    4 1   
     9    3   32 1   
    10    3   33 1   
    11    4    5 2   
    12    4   34 1   
    13    5    6 1   
    14    5   11 1   
    15    6    7 2   
    16    6   35 1   
    17    7    8 1   
    18    7   36 1   
    19    8    9 1   
    20    8   10 1   
    21    8   37 1   
    22    9   38 1   
    23    9   39 1   
    24    9   40 1   
    25   10   11 1   
    26   10   12 1   
    27   10   41 1   
    28   11   42 1   
    29   12   13 1   
    30   12   43 1   
    31   12   44 1   
    32   13   14 1   
    33   13   45 1   
    34   13   46 1   
    35   14   15 1   
    36   14   21 1   
    37   14   47 1   
    38   15   16 1   
    39   15   48 1   
    40   15   49 1   
    41   16   17 1   
    42   16   18 1   
    43   16   50 1   
    44   17   51 1   
    45   18   19 1   
    46   18   52 1   
    47   18   53 1   
    48   19   20 1   
    49   19   21 1   
    50   19   54 1   
    51   20   55 1   
    52   22   23 1   
    53   23   24 2   
    54   23   25 1   
    55   25   26 1   
    56   25   27 1   
    57   25   56 1   
    58   26   57 1   
    59   26   58 1   
    60   26   59 1   
    61   27   28 1   
    62   27   60 1   
    63   27   61 1   
    64   28   62 1   
    65   28   63 1   
    66   28   64 1   
@<TRIPOS>SUBSTRUCTURE
     1 2UO         1 TEMP              0 ****  ****    0 ROOT
