@<TRIPOS>MOLECULE
2UP
   23    24     1     0     0
SMALL
bcc


@<TRIPOS>ATOM
      1 CAI        -0.4800   -0.8840    0.0110 ca        1 2UP     -0.072000
      2 CAM         0.8990   -0.5380    0.0350 ca        1 2UP     -0.046000
      3 CAG         1.9090   -1.5220    0.2230 ca        1 2UP     -0.111000
      4 CAD         3.2340   -1.1650    0.2430 ca        1 2UP     -0.130000
      5 CAC         3.6120    0.1900    0.0760 ca        1 2UP     -0.122000
      6 CAF         2.6580    1.1600   -0.1080 ca        1 2UP     -0.121000
      7 CAL         1.2780    0.8180   -0.1340 ca        1 2UP     -0.029000
      8 CAH         0.2680    1.7980   -0.3300 ca        1 2UP     -0.124000
      9 CAE        -1.0580    1.4460   -0.3460 ca        1 2UP     -0.111000
     10 CAK        -1.4370    0.0890   -0.1650 ca        1 2UP     -0.143900
     11 CAJ        -2.8900   -0.2770   -0.1820 ce        1 2UP      0.650800
     12 NAB        -3.2750   -1.2500   -0.9510 n2        1 2UP     -0.826100
     13 NAA        -3.7060    0.5530    0.6200 nh        1 2UP     -0.958800
     14 H1         -0.7620   -1.9430    0.1270 ha        1 2UP      0.149000
     15 H2          1.6040   -2.5720    0.3480 ha        1 2UP      0.135000
     16 H3          4.0180   -1.9240    0.3870 ha        1 2UP      0.133000
     17 H4          4.6810    0.4510    0.0960 ha        1 2UP      0.133000
     18 H5          2.9430    2.2140   -0.2400 ha        1 2UP      0.133000
     19 H6          0.5710    2.8460   -0.4750 ha        1 2UP      0.135000
     20 H7         -1.8360    2.2060   -0.5150 ha        1 2UP      0.144000
     21 H8         -4.2480   -1.4700   -0.9390 hn        1 2UP      0.382400
     22 H9         -3.2320    1.0590    1.3300 hn        1 2UP      0.398300
     23 H10        -4.5830    0.1800    0.9000 hn        1 2UP      0.398300
@<TRIPOS>BOND
     1    1    2 ar  
     2    1   10 ar  
     3    1   14 1   
     4    2    3 ar  
     5    2    7 ar  
     6    3    4 ar  
     7    3   15 1   
     8    4    5 ar  
     9    4   16 1   
    10    5    6 ar  
    11    5   17 1   
    12    6    7 ar  
    13    6   18 1   
    14    7    8 ar  
    15    8    9 ar  
    16    8   19 1   
    17    9   10 ar  
    18    9   20 1   
    19   10   11 1   
    20   11   12 2   
    21   11   13 1   
    22   12   21 1   
    23   13   22 1   
    24   13   23 1   
@<TRIPOS>SUBSTRUCTURE
     1 2UP         1 TEMP              0 ****  ****    0 ROOT
