@<TRIPOS>MOLECULE
2UP
   24    25     1     0     0
SMALL
bcc


@<TRIPOS>ATOM
      1 CAI         0.0070    0.0880   -0.0410 ca        1 2UP     -0.039000
      2 CAM         1.4260    0.0960   -0.0450 ca        1 2UP     -0.051000
      3 CAG         2.1680    0.4060    1.1280 ca        1 2UP     -0.112000
      4 CAD         3.5420    0.4040    1.0990 ca        1 2UP     -0.101000
      5 CAC         4.2330    0.0940   -0.0980 ca        1 2UP     -0.085000
      6 CAF         3.5390   -0.2100   -1.2460 ca        1 2UP     -0.122000
      7 CAL         2.1200   -0.2160   -1.2450 ca        1 2UP     -0.011000
      8 CAH         1.3750   -0.5340   -2.4160 ca        1 2UP     -0.075000
      9 CAE         0.0030   -0.5330   -2.3970 ca        1 2UP     -0.144000
     10 CAK        -0.6860   -0.2160   -1.1950 ca        1 2UP     -0.272900
     11 CAJ        -2.1600   -0.2550   -1.1810 ce        1 2UP      0.597800
     12 NAB        -2.9940   -1.0040   -0.5710 n2        1 2UP     -0.717100
     13 NAA        -2.7460    0.8140   -2.0730 nz        1 2UP     -0.826600
     14 H1         -0.5200    0.3260    0.8980 ha        1 2UP      0.148000
     15 H2          1.6240    0.6440    2.0550 ha        1 2UP      0.147000
     16 H3          4.1220    0.6420    2.0050 ha        1 2UP      0.158000
     17 H4          5.3350    0.0980   -0.0950 ha        1 2UP      0.159000
     18 H5          4.0720   -0.4540   -2.1790 ha        1 2UP      0.154000
     19 H6          1.9230   -0.7880   -3.3380 ha        1 2UP      0.161000
     20 H7         -0.5640   -0.8110   -3.2970 ha        1 2UP      0.133000
     21 H8         -2.6390   -1.7300    0.0180 hn        1 2UP      0.490400
     22 H9         -2.3070    0.7300   -2.9960 hn        1 2UP      0.469467
     23 H10        -2.5120    1.7280   -1.6720 hn        1 2UP      0.469467
     24 HAA3       -3.7650    0.7300   -2.1640 hn        1 2UP      0.469467
@<TRIPOS>BOND
     1    1    2 ar  
     2    1   10 ar  
     3    1   14 1   
     4    2    3 ar  
     5    2    7 ar  
     6    3    4 ar  
     7    3   15 1   
     8    4    5 ar  
     9    4   16 1   
    10    5    6 ar  
    11    5   17 1   
    12    6    7 ar  
    13    6   18 1   
    14    7    8 ar  
    15    8    9 ar  
    16    8   19 1   
    17    9   10 ar  
    18    9   20 1   
    19   10   11 1   
    20   11   12 2   
    21   11   13 1   
    22   12   21 1   
    23   13   22 1   
    24   13   23 1   
    25   13   24 1   
@<TRIPOS>SUBSTRUCTURE
     1 2UP         1 TEMP              0 ****  ****    0 ROOT
