@<TRIPOS>MOLECULE
2UP
   24    25     1     0     0
SMALL
bcc


@<TRIPOS>ATOM
      1 CAI         0.0080    0.0890   -0.0400 ca        1 2UP     -0.039000
      2 CAM         1.4270    0.1020   -0.0460 ca        1 2UP     -0.051000
      3 CAG         2.1690    0.4190    1.1240 ca        1 2UP     -0.112000
      4 CAD         3.5430    0.4210    1.0930 ca        1 2UP     -0.101000
      5 CAC         4.2340    0.1090   -0.1040 ca        1 2UP     -0.085000
      6 CAF         3.5400   -0.2010   -1.2500 ca        1 2UP     -0.122000
      7 CAL         2.1200   -0.2120   -1.2470 ca        1 2UP     -0.011000
      8 CAH         1.3740   -0.5370   -2.4150 ca        1 2UP     -0.075000
      9 CAE         0.0030   -0.5410   -2.3940 ca        1 2UP     -0.144000
     10 CAK        -0.6860   -0.2220   -1.1920 ca        1 2UP     -0.272900
     11 CAJ        -2.1600   -0.2660   -1.1760 ce        1 2UP      0.597800
     12 NAB        -2.9900   -1.0150   -0.5610 n2        1 2UP     -0.717100
     13 NAA        -2.7500    0.7970   -2.0710 n4        1 2UP     -0.826600
     14 H1         -0.5180    0.3290    0.8980 ha        1 2UP      0.148000
     15 H2          1.6260    0.6590    2.0510 ha        1 2UP      0.147000
     16 H3          4.1240    0.6650    1.9970 ha        1 2UP      0.158000
     17 H4          5.3360    0.1170   -0.1020 ha        1 2UP      0.159000
     18 H5          4.0710   -0.4460   -2.1830 ha        1 2UP      0.154000
     19 H6          1.9220   -0.7930   -3.3370 ha        1 2UP      0.161000
     20 H7         -0.5650   -0.8250   -3.2920 ha        1 2UP      0.133000
     21 H8         -2.6320   -1.7370    0.0310 hn        1 2UP      0.490400
     22 H9         -3.7700    0.7090   -2.1610 hn        1 2UP      0.469467
     23 H10        -2.5200    1.7140   -1.6750 hn        1 2UP      0.469467
     24 HAA3       -2.3120    0.7110   -2.9950 hn        1 2UP      0.469467
@<TRIPOS>BOND
     1    1    2 ar  
     2    1   10 ar  
     3    1   14 1   
     4    2    3 ar  
     5    2    7 ar  
     6    3    4 ar  
     7    3   15 1   
     8    4    5 ar  
     9    4   16 1   
    10    5    6 ar  
    11    5   17 1   
    12    6    7 ar  
    13    6   18 1   
    14    7    8 ar  
    15    8    9 ar  
    16    8   19 1   
    17    9   10 ar  
    18    9   20 1   
    19   10   11 1   
    20   11   12 2   
    21   11   13 1   
    22   12   21 1   
    23   13   22 1   
    24   13   23 1   
    25   13   24 1   
@<TRIPOS>SUBSTRUCTURE
     1 2UP         1 TEMP              0 ****  ****    0 ROOT
