@<TRIPOS>MOLECULE
2UP
   23    17     1     0     0
SMALL
bcc


@<TRIPOS>ATOM
      1 CAI        -0.7200    0.0940    0.7590 c1        1 2UP     -0.097000
      2 CAM         0.6880    0.0780    0.7620 c1        1 2UP     -0.043000
      3 CAG         1.3910    0.0620    1.9810 c2        1 2UP     -0.114000
      4 CAD         2.7800    0.0340    1.9820 c1        1 2UP     -0.127000
      5 CAC         3.4770    0.0220    0.7770 c1        1 2UP     -0.120500
      6 CAF         2.7840    0.0380   -0.4270 c1        1 2UP     -0.120500
      7 CAL         1.3760    0.0660   -0.4290 c1        1 2UP     -0.069000
      8 CAH         0.6730    0.0700   -1.6480 c1        1 2UP     -0.111500
      9 CAE        -0.7160    0.0850   -1.6490 c1        1 2UP     -0.111500
     10 CAK        -1.4130    0.0970   -0.4440 c1        1 2UP     -0.069000
     11 CAJ        -2.9250    0.0750   -0.5330 c1        1 2UP      0.115000
     12 NAB        -3.5960    1.1980   -0.5430 n1        1 2UP     -0.303000
     13 NAA        -3.6150   -1.1640   -0.6050 n3        1 2UP     -0.332000
     14 H1         -1.2090    0.1020    1.6040 ha        1 2UP      0.139000
     15 H2          0.9020    0.0700    2.8260 ha        1 2UP      0.134000
     16 H3          3.2670    0.0230    2.8270 ha        1 2UP      0.135000
     17 H4          4.4530    0.0020    0.7780 ha        1 2UP      0.134500
     18 H5          3.2730    0.0300   -1.2720 ha        1 2UP      0.134500
     19 H6          1.1610    0.0610   -2.4930 ha        1 2UP      0.143500
     20 H7         -1.2040    0.0870   -2.4950 ha        1 2UP      0.143500
     21 H8         -3.1520    1.9950   -0.4960 DU        1 2UP      0.151000
     22 H9         -3.1510   -1.9490   -0.5470 hn        1 2UP      0.193500
     23 H10        -4.5230   -1.1760   -0.7150 hn        1 2UP      0.193500
@<TRIPOS>BOND
     1    1    2 1   
     2    1   14 1   
     3    2    3 1   
     4    3    4 1   
     5    3   15 1   
     6    4   16 1   
     7    5    6 1   
     8    5   17 1   
     9    6   18 1   
    10    7    8 1   
    11    8   19 1   
    12    9   10 1   
    13    9   20 1   
    14   11   12 1   
    15   11   13 1   
    16   13   22 1   
    17   13   23 1   
@<TRIPOS>SUBSTRUCTURE
     1 2UP         1 TEMP              0 ****  ****    0 ROOT
