@<TRIPOS>MOLECULE
2UP
   24    25     1     0     0
SMALL
bcc


@<TRIPOS>ATOM
      1 CAI         0.0020    0.1020   -0.0460 ca        1 2UP     -0.039000
      2 CAM         1.4210    0.1210   -0.0430 ca        1 2UP     -0.051000
      3 CAG         2.1540    0.4640    1.1260 ca        1 2UP     -0.112000
      4 CAD         3.5280    0.4720    1.1040 ca        1 2UP     -0.101000
      5 CAC         4.2280    0.1410   -0.0820 ca        1 2UP     -0.085000
      6 CAF         3.5430   -0.1940   -1.2260 ca        1 2UP     -0.122000
      7 CAL         2.1230   -0.2120   -1.2330 ca        1 2UP     -0.011000
      8 CAH         1.3870   -0.5620   -2.3990 ca        1 2UP     -0.075000
      9 CAE         0.0160   -0.5720   -2.3880 ca        1 2UP     -0.144000
     10 CAK        -0.6820   -0.2340   -1.1970 ca        1 2UP     -0.272900
     11 CAJ        -2.1560   -0.2850   -1.1900 ce        1 2UP      0.597800
     12 NAB        -2.9870   -1.0270   -0.5670 n2        1 2UP     -0.717100
     13 NAA        -2.7460    0.7590   -2.1080 n4        1 2UP     -0.826600
     14 H1         -0.5320    0.3560    0.8840 ha        1 2UP      0.148000
     15 H2          1.6030    0.7180    2.0450 ha        1 2UP      0.147000
     16 H3          4.1010    0.7350    2.0080 ha        1 2UP      0.158000
     17 H4          5.3300    0.1550   -0.0730 ha        1 2UP      0.159000
     18 H5          4.0820   -0.4540   -2.1510 ha        1 2UP      0.154000
     19 H6          1.9420   -0.8330   -3.3130 ha        1 2UP      0.161000
     20 H7         -0.5450   -0.8750   -3.2840 ha        1 2UP      0.133000
     21 H8         -2.6300   -1.7380    0.0400 hn        1 2UP      0.490400
     22 H9         -2.3010    0.6590   -3.0270 hn        1 2UP      0.469467
     23 H10        -2.5220    1.6840   -1.7260 hn        1 2UP      0.469467
     24 HAA3       -3.7640    0.6650   -2.2020 hn        1 2UP      0.469467
@<TRIPOS>BOND
     1    1    2 ar  
     2    1   10 ar  
     3    1   14 1   
     4    2    3 ar  
     5    2    7 ar  
     6    3    4 ar  
     7    3   15 1   
     8    4    5 ar  
     9    4   16 1   
    10    5    6 ar  
    11    5   17 1   
    12    6    7 ar  
    13    6   18 1   
    14    7    8 ar  
    15    8    9 ar  
    16    8   19 1   
    17    9   10 ar  
    18    9   20 1   
    19   10   11 1   
    20   11   12 2   
    21   11   13 1   
    22   12   21 1   
    23   13   22 1   
    24   13   23 1   
    25   13   24 1   
@<TRIPOS>SUBSTRUCTURE
     1 2UP         1 TEMP              0 ****  ****    0 ROOT
