@<TRIPOS>MOLECULE
2UQ
   30    31     1     0     0
SMALL
bcc


@<TRIPOS>ATOM
      1 C1         -0.2120   -0.2150    0.0360 ca        1 2UQ     -0.372200
      2 C2          1.1470   -0.6080    0.0840 ca        1 2UQ      0.470700
      3 C11        -4.2480    0.1760   -2.2550 ca        1 2UQ     -0.126300
      4 C12         2.0640    0.0440    3.5870 ce        1 2UQ      0.385200
      5 C14        -5.0560    1.1980   -1.7460 ca        1 2UQ     -0.116500
      6 C15        -6.3830    0.9390   -1.4070 ca        1 2UQ     -0.130500
      7 C16        -6.9090   -0.3420   -1.5750 ca        1 2UQ     -0.121000
      8 C17        -6.1050   -1.3640   -2.0820 ca        1 2UQ     -0.130500
      9 C18        -4.7760   -1.1070   -2.4200 ca        1 2UQ     -0.116500
     10 N3          1.8810   -0.5290    1.2060 nb        1 2UQ     -0.690500
     11 C4          1.2450   -0.0520    2.3240 ca        1 2UQ      0.562700
     12 N5         -0.0670    0.3370    2.3800 nb        1 2UQ     -0.690500
     13 C6         -0.7770    0.2490    1.2400 ca        1 2UQ      0.470700
     14 C7         -0.9570   -0.3460   -1.2420 c         1 2UQ      0.677700
     15 O8         -0.6570   -1.2360   -2.0650 o         1 2UQ     -0.596100
     16 N9         -1.9340    0.5930   -1.5120 n         1 2UQ     -0.550900
     17 C10        -2.8240    0.4650   -2.6380 c3        1 2UQ      0.127300
     18 N13         1.6910    0.4230    4.7420 n2        1 2UQ     -0.728100
     19 H1          1.6490   -1.0060   -0.8210 h4        1 2UQ      0.045600
     20 H2          3.1250   -0.2640    3.4590 h4        1 2UQ      0.044800
     21 H3         -4.6440    2.2110   -1.6210 ha        1 2UQ      0.136000
     22 H4         -7.0160    1.7460   -1.0100 ha        1 2UQ      0.135000
     23 H5         -7.9560   -0.5460   -1.3100 ha        1 2UQ      0.134000
     24 H6         -6.5190   -2.3740   -2.2160 ha        1 2UQ      0.135000
     25 H7         -4.1430   -1.9160   -2.8170 ha        1 2UQ      0.136000
     26 H8         -1.8380    0.5510    1.3170 h4        1 2UQ      0.045600
     27 H9         -2.2270    1.2020   -0.7840 hn        1 2UQ      0.306500
     28 H10        -2.4370   -0.3480   -3.3190 h1        1 2UQ      0.074200
     29 H11        -2.7940    1.4410   -3.2060 h1        1 2UQ      0.074200
     30 H12         0.7420    0.7010    4.8750 hn        1 2UQ      0.409400
@<TRIPOS>BOND
     1    1    2 ar  
     2    1   13 ar  
     3    1   14 1   
     4    2   10 ar  
     5    2   19 1   
     6    3    5 ar  
     7    3    9 ar  
     8    3   17 1   
     9    4   11 1   
    10    4   18 2   
    11    4   20 1   
    12    5    6 ar  
    13    5   21 1   
    14    6    7 ar  
    15    6   22 1   
    16    7    8 ar  
    17    7   23 1   
    18    8    9 ar  
    19    8   24 1   
    20    9   25 1   
    21   10   11 ar  
    22   11   12 ar  
    23   12   13 ar  
    24   13   26 1   
    25   14   15 2   
    26   14   16 1   
    27   16   17 1   
    28   16   27 1   
    29   17   28 1   
    30   17   29 1   
    31   18   30 1   
@<TRIPOS>SUBSTRUCTURE
     1 2UQ         1 TEMP              0 ****  ****    0 ROOT
