@<TRIPOS>MOLECULE
2UQ
   31    32     1     0     0
SMALL
bcc


@<TRIPOS>ATOM
      1 C1         -0.0160   -0.0060    0.0960 ca        1 2UQ     -0.474200
      2 C2          1.4100   -0.0030    0.0370 ca        1 2UQ      0.516200
      3 C11        -4.4220   -0.0130   -2.2230 ca        1 2UQ     -0.197300
      4 C12         2.3860    0.0150    3.5940 ce        1 2UQ      0.369200
      5 C14        -5.1180    1.2000   -2.1640 ca        1 2UQ     -0.100000
      6 C15        -6.5060    1.1990   -2.0460 ca        1 2UQ     -0.118000
      7 C16        -7.2020   -0.0110   -1.9850 ca        1 2UQ     -0.075000
      8 C17        -6.5090   -1.2210   -2.0460 ca        1 2UQ     -0.118000
      9 C18        -5.1200   -1.2260   -2.1640 ca        1 2UQ     -0.100000
     10 N3          2.1720    0.0030    1.1370 nb        1 2UQ     -0.674000
     11 C4          1.5270    0.0070    2.3490 ca        1 2UQ      0.634700
     12 N5          0.1580    0.0050    2.5040 nb        1 2UQ     -0.674000
     13 C6         -0.5870   -0.0020    1.3930 ca        1 2UQ      0.516200
     14 C7         -0.7460   -0.0130   -1.1580 c         1 2UQ      0.581700
     15 O8         -0.2780   -0.0200   -2.2890 o         1 2UQ     -0.420100
     16 N9         -2.2560   -0.0120   -1.0600 ny        1 2UQ     -0.678800
     17 C10        -2.9450   -0.0150   -2.3990 c3        1 2UQ      0.180100
     18 N13         2.0080    0.0190    4.8050 n2        1 2UQ     -0.675100
     19 H1          1.9390   -0.0060   -0.9400 h4        1 2UQ      0.050600
     20 H2          3.4780    0.0170    3.3810 h4        1 2UQ      0.068800
     21 H3         -4.5760    2.1560   -2.2340 ha        1 2UQ      0.140000
     22 H4         -7.0550    2.1540   -2.0090 ha        1 2UQ      0.161000
     23 H5         -8.3010   -0.0090   -1.8970 ha        1 2UQ      0.163000
     24 H6         -7.0600   -2.1750   -2.0090 ha        1 2UQ      0.161000
     25 H7         -4.5800   -2.1830   -2.2340 ha        1 2UQ      0.140000
     26 H8         -1.6790   -0.0040    1.5720 h4        1 2UQ      0.050600
     27 H9         -2.5550   -0.8410   -0.5320 hn        1 2UQ      0.456800
     28 H10        -2.5950   -0.9310   -2.9580 hx        1 2UQ      0.117700
     29 H11        -2.5940    0.8980   -2.9620 hx        1 2UQ      0.117700
     30 H12         1.0350    0.0170    5.0290 hn        1 2UQ      0.421400
     31 H92        -2.5540    0.8190   -0.5360 hn        1 2UQ      0.456800
@<TRIPOS>BOND
     1    1    2 ar  
     2    1   13 ar  
     3    1   14 1   
     4    2   10 ar  
     5    2   19 1   
     6    3    5 ar  
     7    3    9 ar  
     8    3   17 1   
     9    4   11 1   
    10    4   18 2   
    11    4   20 1   
    12    5    6 ar  
    13    5   21 1   
    14    6    7 ar  
    15    6   22 1   
    16    7    8 ar  
    17    7   23 1   
    18    8    9 ar  
    19    8   24 1   
    20    9   25 1   
    21   10   11 ar  
    22   11   12 ar  
    23   12   13 ar  
    24   13   26 1   
    25   14   15 2   
    26   14   16 1   
    27   16   17 1   
    28   16   27 1   
    29   16   31 1   
    30   17   28 1   
    31   17   29 1   
    32   18   30 1   
@<TRIPOS>SUBSTRUCTURE
     1 2UQ         1 TEMP              0 ****  ****    0 ROOT
