@<TRIPOS>MOLECULE
2UR
   25    26     1     0     0
SMALL
bcc


@<TRIPOS>ATOM
      1 O          -0.1160    0.2100    0.0640 o         1 2UR     -0.408100
      2 C8          1.0910    0.1030   -0.0900 c         1 2UR      0.584700
      3 N           1.8530    0.0370    1.2330 n4        1 2UR     -0.764400
      4 C7          1.8870    0.0380   -1.2950 ca        1 2UR     -0.231600
      5 C6          3.2920   -0.1730   -1.3110 ca        1 2UR     -0.141000
      6 C5          3.9890   -0.2280   -2.5120 ca        1 2UR      0.124900
      7 F           5.3260   -0.4300   -2.5040 f         1 2UR     -0.107900
      8 C4          3.3270   -0.0760   -3.7750 ca        1 2UR     -0.044000
      9 C9          1.2500    0.1840   -2.5320 ca        1 2UR      0.231100
     10 C3          1.9760    0.1270   -3.7700 ca        1 2UR     -0.130300
     11 C2          1.0000    0.3180   -4.8830 c3        1 2UR     -0.066100
     12 O1         -0.0810    0.3980   -2.7050 os        1 2UR     -0.286900
     13 C1         -0.3520    0.5030   -4.1610 c3        1 2UR      0.139100
     14 C          -1.3790   -0.5420   -4.5100 c3        1 2UR     -0.117100
     15 H1          1.1910    0.1310    2.0130 hn        1 2UR      0.465133
     16 H2          2.5400    0.7930    1.2770 hn        1 2UR      0.465133
     17 H3          3.8650   -0.3030   -0.3820 ha        1 2UR      0.139000
     18 H4          3.9180   -0.1270   -4.7040 ha        1 2UR      0.188000
     19 H5          1.2510    1.2190   -5.4980 hc        1 2UR      0.096700
     20 H6          0.9760   -0.5730   -5.5620 hc        1 2UR      0.096700
     21 H7         -0.7560    1.5430   -4.2860 h1        1 2UR      0.097700
     22 H8         -1.6840   -0.4140   -5.5770 hc        1 2UR      0.067700
     23 H9         -0.9690   -1.5710   -4.3700 hc        1 2UR      0.067700
     24 H10        -2.2800   -0.4280   -3.8590 hc        1 2UR      0.067700
     25 HN3         2.3380   -0.8600    1.3100 hn        1 2UR      0.465133
@<TRIPOS>BOND
     1    1    2 2   
     2    2    3 1   
     3    2    4 1   
     4    3   15 1   
     5    3   16 1   
     6    3   25 1   
     7    4    5 ar  
     8    4    9 ar  
     9    5    6 ar  
    10    5   17 1   
    11    6    7 1   
    12    6    8 ar  
    13    8   10 ar  
    14    8   18 1   
    15    9   10 ar  
    16    9   12 1   
    17   10   11 1   
    18   11   13 1   
    19   11   19 1   
    20   11   20 1   
    21   12   13 1   
    22   13   14 1   
    23   13   21 1   
    24   14   22 1   
    25   14   23 1   
    26   14   24 1   
@<TRIPOS>SUBSTRUCTURE
     1 2UR         1 TEMP              0 ****  ****    0 ROOT
