@<TRIPOS>MOLECULE
2UR
   25    26     1     0     0
SMALL
bcc


@<TRIPOS>ATOM
      1 O          -0.1220    0.1690    0.0640 o         1 2UR     -0.408100
      2 C8          1.0870    0.0880   -0.0900 c         1 2UR      0.584700
      3 N           1.8500    0.0460    1.2340 n4        1 2UR     -0.764400
      4 C7          1.8850    0.0350   -1.2940 ca        1 2UR     -0.231600
      5 C6          3.2910   -0.1660   -1.3090 ca        1 2UR     -0.141000
      6 C5          3.9900   -0.2110   -2.5100 ca        1 2UR      0.124900
      7 F           5.3280   -0.4030   -2.5010 f         1 2UR     -0.107900
      8 C4          3.3280   -0.0600   -3.7720 ca        1 2UR     -0.044000
      9 C9          1.2490    0.1800   -2.5310 ca        1 2UR      0.231100
     10 C3          1.9760    0.1330   -3.7680 ca        1 2UR     -0.130300
     11 C2          1.0000    0.3200   -4.8820 c3        1 2UR     -0.066100
     12 O1         -0.0840    0.3840   -2.7050 os        1 2UR     -0.287900
     13 C1         -0.3550    0.4930   -4.1600 c3        1 2UR      0.139100
     14 C          -1.3730   -0.5590   -4.5140 c3        1 2UR     -0.117100
     15 H1          1.1880    0.1390    2.0140 hn        1 2UR      0.465133
     16 H2          2.5270    0.8130    1.2700 hn        1 2UR      0.465133
     17 H3          3.8640   -0.2970   -0.3800 ha        1 2UR      0.139000
     18 H4          3.9210   -0.1020   -4.7010 ha        1 2UR      0.188000
     19 H5          1.2440    1.2260   -5.4930 hc        1 2UR      0.096700
     20 H6          0.9830   -0.5680   -5.5640 hc        1 2UR      0.096700
     21 H7         -0.7660    1.5300   -4.2830 h1        1 2UR      0.097700
     22 H8         -0.9550   -1.5850   -4.3780 hc        1 2UR      0.067700
     23 H9         -2.2760   -0.4540   -3.8640 hc        1 2UR      0.067700
     24 H10        -1.6780   -0.4300   -5.5810 hc        1 2UR      0.067700
     25 HN3         2.3490   -0.8430    1.3200 hn        1 2UR      0.465133
@<TRIPOS>BOND
     1    1    2 2   
     2    2    3 1   
     3    2    4 1   
     4    3   15 1   
     5    3   16 1   
     6    3   25 1   
     7    4    5 ar  
     8    4    9 ar  
     9    5    6 ar  
    10    5   17 1   
    11    6    7 1   
    12    6    8 ar  
    13    8   10 ar  
    14    8   18 1   
    15    9   10 ar  
    16    9   12 1   
    17   10   11 1   
    18   11   13 1   
    19   11   19 1   
    20   11   20 1   
    21   12   13 1   
    22   13   14 1   
    23   13   21 1   
    24   14   22 1   
    25   14   23 1   
    26   14   24 1   
@<TRIPOS>SUBSTRUCTURE
     1 2UR         1 TEMP              0 ****  ****    0 ROOT
