@<TRIPOS>MOLECULE
2UR
   25    26     1     0     0
SMALL
bcc


@<TRIPOS>ATOM
      1 O          -0.1260    0.1730    0.0610 o         1 2UR     -0.408100
      2 C8          1.0830    0.0880   -0.0900 c         1 2UR      0.584700
      3 N           1.8430    0.0350    1.2350 nz        1 2UR     -0.764400
      4 C7          1.8830    0.0380   -1.2930 ca        1 2UR     -0.231600
      5 C6          3.2900   -0.1570   -1.3060 ca        1 2UR     -0.141000
      6 C5          3.9910   -0.1990   -2.5060 ca        1 2UR      0.124900
      7 F           5.3300   -0.3860   -2.4950 f         1 2UR     -0.107900
      8 C4          3.3300   -0.0490   -3.7690 ca        1 2UR     -0.044000
      9 C9          1.2480    0.1810   -2.5310 ca        1 2UR      0.231100
     10 C3          1.9770    0.1390   -3.7670 ca        1 2UR     -0.130300
     11 C2          1.0030    0.3230   -4.8820 c3        1 2UR     -0.066100
     12 O1         -0.0850    0.3810   -2.7070 os        1 2UR     -0.287900
     13 C1         -0.3540    0.4890   -4.1630 c3        1 2UR      0.139100
     14 C          -1.3670   -0.5660   -4.5190 c3        1 2UR     -0.117100
     15 H1          2.5190    0.8010    1.2790 hn        1 2UR      0.465133
     16 H2          1.1790    0.1210    2.0140 hn        1 2UR      0.465133
     17 H3          3.8620   -0.2850   -0.3760 ha        1 2UR      0.139000
     18 H4          3.9250   -0.0890   -4.6970 ha        1 2UR      0.188000
     19 H5          1.2440    1.2300   -5.4920 hc        1 2UR      0.096700
     20 H6          0.9900   -0.5650   -5.5650 hc        1 2UR      0.096700
     21 H7         -0.7690    1.5250   -4.2850 h1        1 2UR      0.097700
     22 H8         -2.2720   -0.4650   -3.8700 hc        1 2UR      0.067700
     23 H9         -0.9460   -1.5910   -4.3820 hc        1 2UR      0.067700
     24 H10        -1.6720   -0.4370   -5.5870 hc        1 2UR      0.067700
     25 HN3         2.3420   -0.8550    1.3140 hn        1 2UR      0.465133
@<TRIPOS>BOND
     1    1    2 2   
     2    2    3 1   
     3    2    4 1   
     4    3   15 1   
     5    3   16 1   
     6    3   25 1   
     7    4    5 ar  
     8    4    9 ar  
     9    5    6 ar  
    10    5   17 1   
    11    6    7 1   
    12    6    8 ar  
    13    8   10 ar  
    14    8   18 1   
    15    9   10 ar  
    16    9   12 1   
    17   10   11 1   
    18   11   13 1   
    19   11   19 1   
    20   11   20 1   
    21   12   13 1   
    22   13   14 1   
    23   13   21 1   
    24   14   22 1   
    25   14   23 1   
    26   14   24 1   
@<TRIPOS>SUBSTRUCTURE
     1 2UR         1 TEMP              0 ****  ****    0 ROOT
