@<TRIPOS>MOLECULE
2US
   34    36     1     0     0
SMALL
bcc


@<TRIPOS>ATOM
      1 O4          0.0190    0.3060   -0.0350 o         1 2US     -0.464100
      2 C11         1.2400    0.2220    0.0210 c         1 2US      0.591900
      3 C12         2.0950    0.1050    1.2320 ca        1 2US     -0.241600
      4 C2          3.4460    0.0380    0.7670 ca        1 2US      0.248100
      5 C13         1.8190    0.0580    2.5760 ca        1 2US      0.054000
      6 C14         2.9060   -0.0590    3.4790 ca        1 2US     -0.160000
      7 C15         4.2100   -0.1230    3.0350 ca        1 2US     -0.058000
      8 C1          4.5300   -0.0770    1.6500 ca        1 2US     -0.261600
      9 C           5.8640   -0.1390    1.1050 c         1 2US      0.588700
     10 O           6.2560   -0.1110   -0.0530 o         1 2US     -0.426100
     11 N           7.0080   -0.2590    2.1120 n4        1 2US     -0.764400
     12 C3          2.2040    0.2130   -1.1090 cc        1 2US     -0.143100
     13 O1          3.5420    0.0990   -0.5990 os        1 2US     -0.194200
     14 C4          1.9370    0.2960   -2.4260 cf        1 2US      0.076800
     15 C5          2.8340    0.2910   -3.5470 ca        1 2US     -0.181800
     16 C10         2.2890    0.3960   -4.8570 ca        1 2US      0.215100
     17 O3          0.9270    0.4950   -4.9510 oh        1 2US     -0.492100
     18 C9          3.1030    0.3970   -5.9940 ca        1 2US     -0.262000
     19 C8          4.4910    0.2920   -5.8270 ca        1 2US      0.214100
     20 O2          5.2410    0.2980   -6.9700 oh        1 2US     -0.474100
     21 C7          5.0570    0.1870   -4.5430 ca        1 2US     -0.264000
     22 C6          4.2320    0.1880   -3.4300 ca        1 2US     -0.011000
     23 H1          0.7820    0.1080    2.9510 ha        1 2US      0.187000
     24 H2          2.6920   -0.0980    4.5610 ha        1 2US      0.171000
     25 H3          5.0080   -0.2140    3.7870 ha        1 2US      0.123000
     26 H4          7.0030    0.5480    2.7410 hn        1 2US      0.464133
     27 H5          7.9030   -0.2920    1.6100 hn        1 2US      0.464133
     28 H6          0.8530    0.3810   -2.6790 ha        1 2US      0.189000
     29 H7          0.6820    0.5600   -5.8880 ho        1 2US      0.445000
     30 H8          2.6770    0.4780   -7.0050 ha        1 2US      0.170000
     31 H9          6.1770    0.2200   -6.7260 ho        1 2US      0.434000
     32 H10         6.1470    0.1050   -4.4280 ha        1 2US      0.145000
     33 H11         4.6900    0.1050   -2.4300 ha        1 2US      0.150000
     34 HN3         6.8980   -1.1130    2.6630 hn        1 2US      0.464133
@<TRIPOS>BOND
     1    1    2 2   
     2    2    3 1   
     3    2   12 1   
     4    3    4 ar  
     5    3    5 ar  
     6    4    8 ar  
     7    4   13 1   
     8    5    6 ar  
     9    5   23 1   
    10    6    7 ar  
    11    6   24 1   
    12    7    8 ar  
    13    7   25 1   
    14    8    9 1   
    15    9   10 2   
    16    9   11 1   
    17   11   26 1   
    18   11   27 1   
    19   11   34 1   
    20   12   13 1   
    21   12   14 2   
    22   14   15 1   
    23   14   28 1   
    24   15   16 ar  
    25   15   22 ar  
    26   16   17 1   
    27   16   18 ar  
    28   17   29 1   
    29   18   19 ar  
    30   18   30 1   
    31   19   20 1   
    32   19   21 ar  
    33   20   31 1   
    34   21   22 ar  
    35   21   32 1   
    36   22   33 1   
@<TRIPOS>SUBSTRUCTURE
     1 2US         1 TEMP              0 ****  ****    0 ROOT
