@<TRIPOS>MOLECULE
2US
   34    36     1     0     0
SMALL
bcc


@<TRIPOS>ATOM
      1 O4          0.0190    0.2890   -0.0350 o         1 2US     -0.464100
      2 C11         1.2400    0.2090    0.0200 c         1 2US      0.591900
      3 C12         2.0950    0.0930    1.2320 ca        1 2US     -0.241600
      4 C2          3.4470    0.0320    0.7660 ca        1 2US      0.248100
      5 C13         1.8190    0.0420    2.5760 ca        1 2US      0.054000
      6 C14         2.9070   -0.0730    3.4780 ca        1 2US     -0.160000
      7 C15         4.2110   -0.1330    3.0340 ca        1 2US     -0.058000
      8 C1          4.5310   -0.0820    1.6490 ca        1 2US     -0.261600
      9 C           5.8650   -0.1390    1.1040 c         1 2US      0.588700
     10 O           6.2570   -0.1040   -0.0540 o         1 2US     -0.426100
     11 N           7.0090   -0.2620    2.1110 n4        1 2US     -0.764400
     12 C3          2.2040    0.2060   -1.1100 cc        1 2US     -0.143100
     13 O1          3.5420    0.0950   -0.6000 os        1 2US     -0.194200
     14 C4          1.9360    0.2900   -2.4260 cf        1 2US      0.076800
     15 C5          2.8340    0.2910   -3.5470 ca        1 2US     -0.181800
     16 C10         2.2880    0.3920   -4.8570 ca        1 2US      0.215100
     17 O3          0.9250    0.4830   -4.9510 oh        1 2US     -0.492100
     18 C9          3.1010    0.3990   -5.9950 ca        1 2US     -0.262000
     19 C8          4.4900    0.3030   -5.8280 ca        1 2US      0.214100
     20 O2          5.2400    0.3140   -6.9700 oh        1 2US     -0.474100
     21 C7          5.0570    0.2010   -4.5430 ca        1 2US     -0.264000
     22 C6          4.2320    0.1960   -3.4300 ca        1 2US     -0.011000
     23 H1          0.7820    0.0880    2.9510 ha        1 2US      0.187000
     24 H2          2.6920   -0.1150    4.5600 ha        1 2US      0.171000
     25 H3          5.0100   -0.2220    3.7860 ha        1 2US      0.123000
     26 H4          7.0040    0.5420    2.7430 hn        1 2US      0.464133
     27 H5          7.9040   -0.2930    1.6090 hn        1 2US      0.464133
     28 H6          0.8530    0.3710   -2.6790 ha        1 2US      0.189000
     29 H7          0.6800    0.5470   -5.8880 ho        1 2US      0.445000
     30 H8          2.6750    0.4780   -7.0050 ha        1 2US      0.170000
     31 H9          6.1760    0.2420   -6.7270 ho        1 2US      0.434000
     32 H10         6.1480    0.1260   -4.4290 ha        1 2US      0.145000
     33 H11         4.6910    0.1160   -2.4300 ha        1 2US      0.150000
     34 HN3         6.8990   -1.1190    2.6590 hn        1 2US      0.464133
@<TRIPOS>BOND
     1    1    2 2   
     2    2    3 1   
     3    2   12 1   
     4    3    4 ar  
     5    3    5 ar  
     6    4    8 ar  
     7    4   13 1   
     8    5    6 ar  
     9    5   23 1   
    10    6    7 ar  
    11    6   24 1   
    12    7    8 ar  
    13    7   25 1   
    14    8    9 1   
    15    9   10 2   
    16    9   11 1   
    17   11   26 1   
    18   11   27 1   
    19   11   34 1   
    20   12   13 1   
    21   12   14 2   
    22   14   15 1   
    23   14   28 1   
    24   15   16 ar  
    25   15   22 ar  
    26   16   17 1   
    27   16   18 ar  
    28   17   29 1   
    29   18   19 ar  
    30   18   30 1   
    31   19   20 1   
    32   19   21 ar  
    33   20   31 1   
    34   21   22 ar  
    35   21   32 1   
    36   22   33 1   
@<TRIPOS>SUBSTRUCTURE
     1 2US         1 TEMP              0 ****  ****    0 ROOT
