@<TRIPOS>MOLECULE
2UT
   52    55     1     0     0
SMALL
bcc


@<TRIPOS>ATOM
      1 O4          0.0110   -0.1410    0.0230 o         1 2UT     -0.466100
      2 C17         1.2300   -0.0530    0.1140 c         1 2UT      0.590900
      3 C18         2.0590   -0.0420    1.3480 ca        1 2UT     -0.241600
      4 C2          3.4180    0.0780    0.9190 ca        1 2UT      0.246100
      5 C19         1.7570   -0.1190    2.6860 ca        1 2UT      0.054000
      6 C20         2.8260   -0.0770    3.6160 ca        1 2UT     -0.160000
      7 C21         4.1380    0.0360    3.2050 ca        1 2UT     -0.056000
      8 C1          4.4840    0.1180    1.8290 ca        1 2UT     -0.259600
      9 C           5.8270    0.2430    1.3160 c         1 2UT      0.587700
     10 O           6.2330    0.3830    0.1710 o         1 2UT     -0.419100
     11 N           6.9580    0.1890    2.3420 nz        1 2UT     -0.764400
     12 C3          2.2160    0.0640   -0.9910 cc        1 2UT     -0.135100
     13 O1          3.5410    0.1430   -0.4460 os        1 2UT     -0.190200
     14 C4          1.9810    0.0950   -2.3160 cf        1 2UT      0.065800
     15 C5          2.9050    0.2060   -3.4120 ca        1 2UT     -0.162800
     16 C16         4.2930    0.3680   -3.2420 ca        1 2UT     -0.042500
     17 C15         5.1390    0.4700   -4.3340 ca        1 2UT     -0.200500
     18 C8          4.6030    0.4090   -5.6390 ca        1 2UT      0.187100
     19 C7          3.2200    0.2500   -5.8280 ca        1 2UT     -0.200500
     20 C6          2.3880    0.1520   -4.7220 ca        1 2UT     -0.042500
     21 O2          5.5220    0.5300   -6.6460 os        1 2UT     -0.310900
     22 C9          5.0310    0.3630   -7.9870 c3        1 2UT      0.124400
     23 C10         6.2720    0.4200   -8.8900 c3        1 2UT      0.170800
     24 N1          6.9570   -0.8560   -8.9910 n3        1 2UT     -0.735600
     25 C14         6.3770   -1.7320  -10.0000 c3        1 2UT      0.135300
     26 C13         7.1320   -3.0610  -10.1240 c3        1 2UT      0.126900
     27 O3          8.5240   -2.8540  -10.3290 os        1 2UT     -0.409600
     28 C12         9.1060   -2.0650   -9.2990 c3        1 2UT      0.126900
     29 C11         8.3990   -0.7130   -9.1510 c3        1 2UT      0.135300
     30 H1          0.7140   -0.2110    3.0350 ha        1 2UT      0.186000
     31 H2          2.5910   -0.1370    4.6920 ha        1 2UT      0.171000
     32 H3          4.9210    0.0670    3.9780 ha        1 2UT      0.123000
     33 H4          6.9140   -0.6910    2.8620 hn        1 2UT      0.464133
     34 H5          7.8620    0.2530    1.8580 hn        1 2UT      0.464133
     35 H6          0.9060    0.0200   -2.5980 ha        1 2UT      0.169000
     36 H7          4.7280    0.4180   -2.2300 ha        1 2UT      0.143500
     37 H8          6.2240    0.5960   -4.2070 ha        1 2UT      0.155000
     38 H9          2.7900    0.2060   -6.8390 ha        1 2UT      0.155000
     39 H10         1.3040    0.0290   -4.8750 ha        1 2UT      0.143500
     40 H11         4.3480    1.2190   -8.2290 h1        1 2UT      0.051700
     41 H12         4.4800   -0.6080   -8.0710 h1        1 2UT      0.051700
     42 H13         5.9250    0.7970   -9.8970 h1        1 2UT      0.055200
     43 H14         6.9750    1.1880   -8.4570 h1        1 2UT      0.055200
     44 H16         5.3150   -1.9500   -9.7000 h1        1 2UT      0.041450
     45 H17         6.3580   -1.2390  -11.0170 h1        1 2UT      0.041450
     46 H18         6.9750   -3.6930   -9.2110 h1        1 2UT      0.056450
     47 H19         6.7930   -3.6130  -11.0400 h1        1 2UT      0.056450
     48 H20         9.0820   -2.6320   -8.3320 h1        1 2UT      0.056450
     49 H21        10.1660   -1.9110   -9.6310 h1        1 2UT      0.056450
     50 H22         8.6550   -0.0760  -10.0480 h1        1 2UT      0.041450
     51 H23         8.7990   -0.2000   -8.2320 h1        1 2UT      0.041450
     52 HN3         6.8710    0.9700    2.9970 hn        1 2UT      0.464133
@<TRIPOS>BOND
     1    1    2 2   
     2    2    3 1   
     3    2   12 1   
     4    3    4 ar  
     5    3    5 ar  
     6    4    8 ar  
     7    4   13 1   
     8    5    6 ar  
     9    5   30 1   
    10    6    7 ar  
    11    6   31 1   
    12    7    8 ar  
    13    7   32 1   
    14    8    9 1   
    15    9   10 2   
    16    9   11 1   
    17   11   33 1   
    18   11   34 1   
    19   11   52 1   
    20   12   13 1   
    21   12   14 2   
    22   14   15 1   
    23   14   35 1   
    24   15   16 ar  
    25   15   20 ar  
    26   16   17 ar  
    27   16   36 1   
    28   17   18 ar  
    29   17   37 1   
    30   18   19 ar  
    31   18   21 1   
    32   19   20 ar  
    33   19   38 1   
    34   20   39 1   
    35   21   22 1   
    36   22   23 1   
    37   22   40 1   
    38   22   41 1   
    39   23   24 1   
    40   23   42 1   
    41   23   43 1   
    42   24   25 1   
    43   24   29 1   
    44   25   26 1   
    45   25   44 1   
    46   25   45 1   
    47   26   27 1   
    48   26   46 1   
    49   26   47 1   
    50   27   28 1   
    51   28   29 1   
    52   28   48 1   
    53   28   49 1   
    54   29   50 1   
    55   29   51 1   
@<TRIPOS>SUBSTRUCTURE
     1 2UT         1 TEMP              0 ****  ****    0 ROOT
