@<TRIPOS>MOLECULE
2UT
   52    55     1     0     0
SMALL
bcc


@<TRIPOS>ATOM
      1 O4          0.0080   -0.1540    0.0190 o         1 2UT     -0.466100
      2 C17         1.2260   -0.0630    0.1110 c         1 2UT      0.590900
      3 C18         2.0530   -0.0480    1.3470 ca        1 2UT     -0.241600
      4 C2          3.4130    0.0760    0.9190 ca        1 2UT      0.246100
      5 C19         1.7510   -0.1260    2.6840 ca        1 2UT      0.054000
      6 C20         2.8180   -0.0810    3.6160 ca        1 2UT     -0.160000
      7 C21         4.1300    0.0360    3.2060 ca        1 2UT     -0.056000
      8 C1          4.4780    0.1190    1.8300 ca        1 2UT     -0.259600
      9 C           5.8210    0.2470    1.3180 c         1 2UT      0.587700
     10 O           6.2280    0.3860    0.1740 o         1 2UT     -0.419100
     11 N           6.9510    0.2000    2.3460 n4        1 2UT     -0.764400
     12 C3          2.2130    0.0570   -0.9930 cc        1 2UT     -0.135100
     13 O1          3.5370    0.1400   -0.4460 os        1 2UT     -0.190200
     14 C4          1.9790    0.0870   -2.3180 cf        1 2UT      0.065800
     15 C5          2.9050    0.2010   -3.4120 ca        1 2UT     -0.162800
     16 C16         4.2920    0.3650   -3.2410 ca        1 2UT     -0.042500
     17 C15         5.1380    0.4680   -4.3330 ca        1 2UT     -0.200500
     18 C8          4.6040    0.4080   -5.6380 ca        1 2UT      0.187100
     19 C7          3.2220    0.2470   -5.8290 ca        1 2UT     -0.200500
     20 C6          2.3890    0.1470   -4.7230 ca        1 2UT     -0.042500
     21 O2          5.5240    0.5320   -6.6440 os        1 2UT     -0.310900
     22 C9          5.0340    0.3660   -7.9850 c3        1 2UT      0.124400
     23 C10         6.2760    0.4260   -8.8870 c3        1 2UT      0.170800
     24 N1          6.9620   -0.8500   -8.9900 n3        1 2UT     -0.735600
     25 C14         6.3840   -1.7240  -10.0030 c3        1 2UT      0.135300
     26 C13         7.1400   -3.0520  -10.1290 c3        1 2UT      0.126900
     27 O3          8.5320   -2.8440  -10.3320 os        1 2UT     -0.409600
     28 C12         9.1120   -2.0570   -9.2990 c3        1 2UT      0.126900
     29 C11         8.4040   -0.7050   -9.1490 c3        1 2UT      0.135300
     30 H1          0.7070   -0.2210    3.0320 ha        1 2UT      0.186000
     31 H2          2.5820   -0.1410    4.6910 ha        1 2UT      0.171000
     32 H3          4.9120    0.0700    3.9790 ha        1 2UT      0.123000
     33 H4          7.8550    0.2670    1.8630 hn        1 2UT      0.464133
     34 H5          6.9100   -0.6780    2.8680 hn        1 2UT      0.464133
     35 H6          0.9050    0.0090   -2.6010 ha        1 2UT      0.169000
     36 H7          4.7260    0.4140   -2.2290 ha        1 2UT      0.143500
     37 H8          6.2230    0.5960   -4.2040 ha        1 2UT      0.155000
     38 H9          2.7920    0.2030   -6.8400 ha        1 2UT      0.155000
     39 H10         1.3040    0.0220   -4.8770 ha        1 2UT      0.143500
     40 H11         4.3500    1.2210   -8.2270 h1        1 2UT      0.051700
     41 H12         4.4850   -0.6070   -8.0720 h1        1 2UT      0.051700
     42 H13         6.9780    1.1940   -8.4520 h1        1 2UT      0.055200
     43 H14         5.9290    0.8040   -9.8940 h1        1 2UT      0.055200
     44 H16         6.3650   -1.2290  -11.0180 h1        1 2UT      0.041450
     45 H17         5.3220   -1.9430   -9.7040 h1        1 2UT      0.041450
     46 H18         6.8020   -3.6030  -11.0460 h1        1 2UT      0.056700
     47 H19         6.9830   -3.6870   -9.2170 h1        1 2UT      0.056700
     48 H20         9.0880   -2.6260   -8.3330 h1        1 2UT      0.056700
     49 H21        10.1730   -1.9000   -9.6300 h1        1 2UT      0.056700
     50 H22         8.6600   -0.0670  -10.0440 h1        1 2UT      0.041450
     51 H23         8.8030   -0.1950   -8.2290 h1        1 2UT      0.041450
     52 HN3         6.8590    0.9820    3.0000 hn        1 2UT      0.464133
@<TRIPOS>BOND
     1    1    2 2   
     2    2    3 1   
     3    2   12 1   
     4    3    4 ar  
     5    3    5 ar  
     6    4    8 ar  
     7    4   13 1   
     8    5    6 ar  
     9    5   30 1   
    10    6    7 ar  
    11    6   31 1   
    12    7    8 ar  
    13    7   32 1   
    14    8    9 1   
    15    9   10 2   
    16    9   11 1   
    17   11   33 1   
    18   11   34 1   
    19   11   52 1   
    20   12   13 1   
    21   12   14 2   
    22   14   15 1   
    23   14   35 1   
    24   15   16 ar  
    25   15   20 ar  
    26   16   17 ar  
    27   16   36 1   
    28   17   18 ar  
    29   17   37 1   
    30   18   19 ar  
    31   18   21 1   
    32   19   20 ar  
    33   19   38 1   
    34   20   39 1   
    35   21   22 1   
    36   22   23 1   
    37   22   40 1   
    38   22   41 1   
    39   23   24 1   
    40   23   42 1   
    41   23   43 1   
    42   24   25 1   
    43   24   29 1   
    44   25   26 1   
    45   25   44 1   
    46   25   45 1   
    47   26   27 1   
    48   26   46 1   
    49   26   47 1   
    50   27   28 1   
    51   28   29 1   
    52   28   48 1   
    53   28   49 1   
    54   29   50 1   
    55   29   51 1   
@<TRIPOS>SUBSTRUCTURE
     1 2UT         1 TEMP              0 ****  ****    0 ROOT
