@<TRIPOS>MOLECULE
2UT
   52    55     1     0     0
SMALL
bcc


@<TRIPOS>ATOM
      1 O4          0.0130   -0.1610    0.0260 o         1 2UT     -0.466100
      2 C17         1.2310   -0.0680    0.1170 c         1 2UT      0.590900
      3 C18         2.0610   -0.0510    1.3510 ca        1 2UT     -0.241600
      4 C2          3.4190    0.0740    0.9200 ca        1 2UT      0.246100
      5 C19         1.7610   -0.1290    2.6880 ca        1 2UT      0.054000
      6 C20         2.8300   -0.0830    3.6180 ca        1 2UT     -0.160000
      7 C21         4.1410    0.0360    3.2060 ca        1 2UT     -0.056000
      8 C1          4.4860    0.1190    1.8290 ca        1 2UT     -0.259600
      9 C           5.8280    0.2490    1.3150 c         1 2UT      0.587700
     10 O           6.2330    0.3900    0.1700 o         1 2UT     -0.419100
     11 N           6.9600    0.2030    2.3410 n4        1 2UT     -0.764400
     12 C3          2.2160    0.0540   -0.9890 cc        1 2UT     -0.135100
     13 O1          3.5410    0.1390   -0.4440 os        1 2UT     -0.190200
     14 C4          1.9800    0.0830   -2.3140 cf        1 2UT      0.065800
     15 C5          2.9040    0.1980   -3.4100 ca        1 2UT     -0.162800
     16 C16         4.2910    0.3660   -3.2410 ca        1 2UT     -0.042500
     17 C15         5.1350    0.4710   -4.3340 ca        1 2UT     -0.200500
     18 C8          4.5990    0.4080   -5.6380 ca        1 2UT      0.187100
     19 C7          3.2170    0.2430   -5.8270 ca        1 2UT     -0.200500
     20 C6          2.3860    0.1410   -4.7200 ca        1 2UT     -0.042500
     21 O2          5.5170    0.5330   -6.6460 os        1 2UT     -0.310900
     22 C9          5.0260    0.3640   -7.9860 c3        1 2UT      0.124400
     23 C10         6.2650    0.4260   -8.8900 c3        1 2UT      0.170800
     24 N1          6.9560   -0.8480   -8.9920 n3        1 2UT     -0.735600
     25 C14         6.3780   -1.7260  -10.0020 c3        1 2UT      0.135300
     26 C13         7.1380   -3.0520  -10.1270 c3        1 2UT      0.126900
     27 O3          8.5290   -2.8400  -10.3320 os        1 2UT     -0.409600
     28 C12         9.1090   -2.0490   -9.3020 c3        1 2UT      0.126900
     29 C11         8.3970   -0.6990   -9.1530 c3        1 2UT      0.135300
     30 H1          0.7180   -0.2260    3.0380 ha        1 2UT      0.186000
     31 H2          2.5960   -0.1430    4.6940 ha        1 2UT      0.171000
     32 H3          4.9250    0.0710    3.9780 ha        1 2UT      0.123000
     33 H4          6.9200   -0.6760    2.8620 hn        1 2UT      0.464133
     34 H5          7.8630    0.2700    1.8560 hn        1 2UT      0.464133
     35 H6          0.9060    0.0030   -2.5950 ha        1 2UT      0.169000
     36 H7          4.7260    0.4180   -2.2290 ha        1 2UT      0.143500
     37 H8          6.2200    0.6020   -4.2070 ha        1 2UT      0.155000
     38 H9          2.7860    0.1960   -6.8370 ha        1 2UT      0.155000
     39 H10         1.3020    0.0130   -4.8720 ha        1 2UT      0.143500
     40 H11         4.3380    1.2170   -8.2280 h1        1 2UT      0.051700
     41 H12         4.4790   -0.6100   -8.0700 h1        1 2UT      0.051700
     42 H13         5.9160    0.8020   -9.8970 h1        1 2UT      0.055200
     43 H14         6.9660    1.1970   -8.4580 h1        1 2UT      0.055200
     44 H16         6.3560   -1.2320  -11.0180 h1        1 2UT      0.041450
     45 H17         5.3170   -1.9470   -9.7010 h1        1 2UT      0.041450
     46 H18         6.9840   -3.6850   -9.2140 h1        1 2UT      0.056450
     47 H19         6.8010   -3.6040  -11.0430 h1        1 2UT      0.056450
     48 H20        10.1680   -1.8900   -9.6340 h1        1 2UT      0.056450
     49 H21         9.0870   -2.6160   -8.3350 h1        1 2UT      0.056450
     50 H22         8.7960   -0.1850   -8.2340 h1        1 2UT      0.041450
     51 H23         8.6500   -0.0610  -10.0490 h1        1 2UT      0.041450
     52 HN3         6.8700    0.9840    2.9950 hn        1 2UT      0.464133
@<TRIPOS>BOND
     1    1    2 2   
     2    2    3 1   
     3    2   12 1   
     4    3    4 ar  
     5    3    5 ar  
     6    4    8 ar  
     7    4   13 1   
     8    5    6 ar  
     9    5   30 1   
    10    6    7 ar  
    11    6   31 1   
    12    7    8 ar  
    13    7   32 1   
    14    8    9 1   
    15    9   10 2   
    16    9   11 1   
    17   11   33 1   
    18   11   34 1   
    19   11   52 1   
    20   12   13 1   
    21   12   14 2   
    22   14   15 1   
    23   14   35 1   
    24   15   16 ar  
    25   15   20 ar  
    26   16   17 ar  
    27   16   36 1   
    28   17   18 ar  
    29   17   37 1   
    30   18   19 ar  
    31   18   21 1   
    32   19   20 ar  
    33   19   38 1   
    34   20   39 1   
    35   21   22 1   
    36   22   23 1   
    37   22   40 1   
    38   22   41 1   
    39   23   24 1   
    40   23   42 1   
    41   23   43 1   
    42   24   25 1   
    43   24   29 1   
    44   25   26 1   
    45   25   44 1   
    46   25   45 1   
    47   26   27 1   
    48   26   46 1   
    49   26   47 1   
    50   27   28 1   
    51   28   29 1   
    52   28   48 1   
    53   28   49 1   
    54   29   50 1   
    55   29   51 1   
@<TRIPOS>SUBSTRUCTURE
     1 2UT         1 TEMP              0 ****  ****    0 ROOT
