@<TRIPOS>MOLECULE
2UU
   59    64     1     0     0
SMALL
bcc


@<TRIPOS>ATOM
      1 C1          0.0000    0.0000    0.0000 ca        1 2UU     -0.116000
      2 C2         10.6980   -0.0000   11.7660 ca        1 2UU     -0.139000
      3 C3         10.4720    1.0160   12.6940 ca        1 2UU     -0.083000
      4 C4          1.3830    0.0000    0.0000 ca        1 2UU     -0.090000
      5 C5         -0.6940    0.0070    1.1960 ca        1 2UU     -0.090000
      6 C6          9.8520   -0.1430   10.6700 ca        1 2UU     -0.048000
      7 C7          9.4030    1.8870   12.5260 ca        1 2UU     -0.124000
      8 C8          8.2820   -0.0000    7.9240 cx        1 2UU     -0.411000
      9 C9          6.8380    1.4660    9.2170 cx        1 2UU     -0.373000
     10 C10         8.3850   -0.7580    6.7610 c2        1 2UU      0.093000
     11 C11         6.6120    2.4880   10.1510 c2        1 2UU     -0.061000
     12 C12         2.0750    0.0000    1.1960 ca        1 2UU     -0.119000
     13 C13        -0.0070    0.0130    2.3950 ca        1 2UU     -0.119000
     14 C14         2.7050   -1.1670    5.5410 ca        1 2UU     -0.201500
     15 C15         1.5880   -2.3180    3.7520 ca        1 2UU     -0.201500
     16 C16         2.7560   -2.3430    6.2620 ca        1 2UU      0.039500
     17 C17         1.6480   -3.4930    4.4760 ca        1 2UU      0.039500
     18 C18         6.1880   -1.0730    8.4400 c2        1 2UU     -0.143000
     19 C19         8.7670    0.7390   10.4980 ca        1 2UU     -0.090000
     20 C20         8.5450    1.7440   11.4160 ca        1 2UU      0.065000
     21 C21         7.1820   -0.1580    8.7640 cx        1 2UU      0.125000
     22 C22         7.9070    0.5950    9.3850 cx        1 2UU      0.215000
     23 C23         7.3900   -1.6740    6.4360 c2        1 2UU     -0.199000
     24 C24         7.4570    2.6290   11.2440 c2        1 2UU     -0.173000
     25 C25         6.2920   -1.8330    7.2740 c1        1 2UU      0.138000
     26 C26         1.3810    0.0020    2.3970 ca        1 2UU      0.071000
     27 C27         2.1170   -1.1490    4.2840 ca        1 2UU      0.127000
     28 C28         2.2290   -3.5050    5.7310 ca        1 2UU     -0.523000
     29 C30         6.9990    3.9250   11.9490 c3        1 2UU     -0.035000
     30 N31         3.7800   -5.8600    6.2390 n2        1 2UU     -0.781000
     31 O32         7.4880   -3.5490    4.8920 o         1 2UU     -0.485000
     32 O33         2.2390   -4.7640    8.0850 o         1 2UU     -0.886500
     33 O34         1.1420   -5.8470    6.4220 o         1 2UU     -0.886500
     34 O35         9.2310   -2.2310    4.9480 o         1 2UU     -0.485000
     35 O36         2.0590    0.0080    3.5750 os        1 2UU     -0.136000
     36 S37         2.3290   -5.0100    6.6430 s6        1 2UU      2.214000
     37 H1         -0.5420   -0.0090   -0.9380 ha        1 2UU      0.099000
     38 H2         11.5290   -0.6820   11.9010 ha        1 2UU      0.103000
     39 H3         11.1310    1.1270   13.5470 ha        1 2UU      0.094000
     40 H4          1.9240    0.0080   -0.9380 ha        1 2UU      0.101500
     41 H5         -1.7770    0.0070    1.1940 ha        1 2UU      0.101500
     42 H6         10.0270   -0.9330    9.9490 ha        1 2UU      0.118000
     43 H7          9.2350    2.6840   13.2410 ha        1 2UU      0.105000
     44 H8          8.9920    0.8150    7.8640 hc        1 2UU      0.179000
     45 H9          6.1690    1.7580    8.4170 hc        1 2UU      0.158000
     46 H10         9.1960   -0.3210    6.1900 ha        1 2UU      0.132000
     47 H11         5.7930    3.1110    9.8110 ha        1 2UU      0.104000
     48 H12         3.1590    0.0000    1.1940 ha        1 2UU      0.120000
     49 H13        -0.5520    0.0190    3.3310 ha        1 2UU      0.120000
     50 H14         3.1190   -0.2570    5.9590 ha        1 2UU      0.118500
     51 H15         1.1540   -2.3150    2.7600 ha        1 2UU      0.118500
     52 H16         3.2150   -2.3580    7.2440 ha        1 2UU      0.118500
     53 H17         1.2360   -4.4050    4.0620 ha        1 2UU      0.118500
     54 H18         5.5930   -1.5240    9.2250 ha        1 2UU      0.127000
     55 H19         6.1280    4.3230   11.4430 hc        1 2UU      0.036333
     56 H20         6.7490    3.7070   12.9800 hc        1 2UU      0.036333
     57 H21         7.8000    4.6550   11.9180 hc        1 2UU      0.036333
     58 H31         4.2620   -6.7230    6.0790 hn        1 2UU      0.170000
     59 C29         8.0730   -2.5310    5.3530 c2        1 2UU      0.457000
@<TRIPOS>BOND
     1    1    4 1   
     2    1    5 1   
     3    1   37 1   
     4    2    3 1   
     5    2    6 1   
     6    2   38 1   
     7    3    7 1   
     8    3   39 1   
     9    4   12 1   
    10    4   40 1   
    11    5   13 1   
    12    5   41 1   
    13    6   19 1   
    14    6   42 1   
    15    7   20 1   
    16    7   43 1   
    17    8   10 1   
    18    8   21 1   
    19    8   22 1   
    20    8   44 1   
    21    9   11 1   
    22    9   21 1   
    23    9   22 1   
    24    9   45 1   
    25   10   23 1   
    26   10   46 1   
    27   11   24 1   
    28   11   47 1   
    29   12   26 1   
    30   12   48 1   
    31   13   26 1   
    32   13   49 1   
    33   14   16 1   
    34   14   27 1   
    35   14   50 1   
    36   15   17 1   
    37   15   27 1   
    38   15   51 1   
    39   16   28 1   
    40   16   52 1   
    41   17   28 1   
    42   17   53 1   
    43   18   21 1   
    44   18   25 1   
    45   18   54 1   
    46   19   20 1   
    47   19   22 1   
    48   20   24 1   
    49   21   22 1   
    50   23   25 1   
    51   23   59 1   
    52   24   29 1   
    53   26   35 1   
    54   27   35 1   
    55   28   36 1   
    56   29   55 1   
    57   29   56 1   
    58   29   57 1   
    59   30   36 1   
    60   30   58 1   
    61   31   59 1   
    62   32   36 1   
    63   33   36 1   
    64   34   59 1   
@<TRIPOS>SUBSTRUCTURE
     1 2UU         1 TEMP              0 ****  ****    0 ROOT
