@<TRIPOS>MOLECULE
2UV
   34    35     1     0     0
SMALL
bcc


@<TRIPOS>ATOM
      1 C1          0.0330   -0.1160   -0.1030 ca        1 2UV     -0.133500
      2 C2         -0.0390    0.1510    2.2940 ca        1 2UV     -0.133500
      3 C3         -2.9240   -0.4660    0.0730 ca        1 2UV     -0.093000
      4 C4          1.4140   -0.2720   -0.0430 ca        1 2UV     -0.129500
      5 C5          1.3430   -0.0020    2.3510 ca        1 2UV     -0.129500
      6 C6         -4.3030   -0.3230    0.0200 ca        1 2UV     -0.216000
      7 C7         -2.8260    1.1210    1.8910 ca        1 2UV     -0.045000
      8 C8         -0.7170    0.0960    1.0660 cp        1 2UV      0.016000
      9 C9         -2.1650    0.2530    1.0080 cp        1 2UV     -0.139000
     10 C10        -4.2100    1.2840    1.8610 ca        1 2UV     -0.221600
     11 C11         2.0850   -0.2160    1.1840 ca        1 2UV     -0.109300
     12 C12        -4.9540    0.5540    0.9120 ca        1 2UV      0.191100
     13 C13        -4.8500    2.2360    2.8540 c         1 2UV      0.918200
     14 C14         5.7870    0.6500    0.7830 c3        1 2UV     -0.091100
     15 C15         3.5610   -0.3900    1.2420 c3        1 2UV     -0.026100
     16 C16         4.2930    0.8450    0.7490 c3        1 2UV     -0.079400
     17 O17        -6.1090    2.4060    2.8030 o         1 2UV     -0.831800
     18 O18        -6.3100    0.6250    0.7780 oh        1 2UV     -0.549100
     19 O19        -4.1090    2.8180    3.6910 o         1 2UV     -0.831800
     20 H1         -0.4790   -0.1500   -1.0760 ha        1 2UV      0.138000
     21 H2         -0.6110    0.3190    3.2200 ha        1 2UV      0.138000
     22 H3         -2.4250   -1.1590   -0.6200 ha        1 2UV      0.109000
     23 H4          1.9870   -0.4350   -0.9670 ha        1 2UV      0.118000
     24 H5          1.8560    0.0450    3.3230 ha        1 2UV      0.118000
     25 H6         -4.9010   -0.8860   -0.7080 ha        1 2UV      0.125000
     26 H7         -2.2590    1.7090    2.6340 ha        1 2UV      0.157000
     27 H8          6.3070    1.5680    0.4180 hc        1 2UV      0.027367
     28 H9          6.1330    0.4400    1.8240 hc        1 2UV      0.027367
     29 H10         6.0890   -0.2080    0.1350 hc        1 2UV      0.027367
     30 H11         3.8580   -1.2710    0.6130 hc        1 2UV      0.037700
     31 H12         3.8810   -0.6120    2.2950 hc        1 2UV      0.037700
     32 H13         3.9640    1.0750   -0.2990 hc        1 2UV      0.045200
     33 H14         4.0110    1.7240    1.3850 hc        1 2UV      0.045200
     34 H16        -6.6650    1.2610    1.4380 ho        1 2UV      0.485000
@<TRIPOS>BOND
     1    1    4 ar  
     2    1    8 ar  
     3    1   20 1   
     4    2    5 ar  
     5    2    8 ar  
     6    2   21 1   
     7    3    6 ar  
     8    3    9 ar  
     9    3   22 1   
    10    4   11 ar  
    11    4   23 1   
    12    5   11 ar  
    13    5   24 1   
    14    6   12 ar  
    15    6   25 1   
    16    7    9 ar  
    17    7   10 ar  
    18    7   26 1   
    19    8    9 1   
    20   10   12 ar  
    21   10   13 1   
    22   11   15 1   
    23   12   18 1   
    24   13   17 1   
    25   13   19 1   
    26   14   16 1   
    27   14   27 1   
    28   14   28 1   
    29   14   29 1   
    30   15   16 1   
    31   15   30 1   
    32   15   31 1   
    33   16   32 1   
    34   16   33 1   
    35   18   34 1   
@<TRIPOS>SUBSTRUCTURE
     1 2UV         1 TEMP              0 ****  ****    0 ROOT
