@<TRIPOS>MOLECULE
2UV
   34    35     1     0     0
SMALL
bcc


@<TRIPOS>ATOM
      1 C1          0.0350   -0.0820   -0.1170 ca        1 2UV     -0.133500
      2 C2         -0.0420    0.1200    2.2860 ca        1 2UV     -0.133500
      3 C3         -2.9230   -0.4290    0.0420 ca        1 2UV     -0.093000
      4 C4          1.4160   -0.2420   -0.0580 ca        1 2UV     -0.129500
      5 C5          1.3390   -0.0380    2.3420 ca        1 2UV     -0.129500
      6 C6         -4.3010   -0.2820   -0.0110 ca        1 2UV     -0.216000
      7 C7         -2.8260    1.1060    1.9030 ca        1 2UV     -0.045000
      8 C8         -0.7170    0.0990    1.0550 cp        1 2UV      0.016000
      9 C9         -2.1650    0.2610    0.9990 cp        1 2UV     -0.139000
     10 C10        -4.2100    1.2730    1.8750 ca        1 2UV     -0.221600
     11 C11         2.0830   -0.2220    1.1720 ca        1 2UV     -0.109300
     12 C12        -4.9530    0.5720    0.9040 ca        1 2UV      0.191100
     13 C13        -4.8510    2.1990    2.8910 c         1 2UV      0.918200
     14 C14         5.7880    0.6460    0.8040 c3        1 2UV     -0.091100
     15 C15         3.5590   -0.4000    1.2290 c3        1 2UV     -0.026100
     16 C16         4.2950    0.8460    0.7700 c3        1 2UV     -0.079400
     17 O17        -6.1090    2.3720    2.8420 o         1 2UV     -0.831800
     18 O18        -6.3090    0.6490    0.7680 oh        1 2UV     -0.549100
     19 O19        -4.1100    2.7550    3.7460 o         1 2UV     -0.831800
     20 H1         -0.4740   -0.0870   -1.0920 ha        1 2UV      0.138000
     21 H2         -0.6170    0.2630    3.2150 ha        1 2UV      0.138000
     22 H3         -2.4240   -1.1050   -0.6690 ha        1 2UV      0.109000
     23 H4          1.9910   -0.3810   -0.9850 ha        1 2UV      0.118000
     24 H5          1.8490   -0.0190    3.3170 ha        1 2UV      0.118000
     25 H6         -4.8990   -0.8240   -0.7560 ha        1 2UV      0.125000
     26 H7         -2.2600    1.6720    2.6640 ha        1 2UV      0.157000
     27 H8          6.3110    1.5730    0.4650 hc        1 2UV      0.027367
     28 H9          6.1310    0.4070    1.8390 hc        1 2UV      0.027367
     29 H10         6.0900   -0.1940    0.1330 hc        1 2UV      0.027367
     30 H11         3.8560   -1.2650    0.5760 hc        1 2UV      0.037700
     31 H12         3.8760   -0.6520    2.2760 hc        1 2UV      0.037700
     32 H13         3.9690    1.1050   -0.2710 hc        1 2UV      0.045200
     33 H14         4.0130    1.7080    1.4300 hc        1 2UV      0.045200
     34 H16        -6.6640    1.2680    1.4440 ho        1 2UV      0.485000
@<TRIPOS>BOND
     1    1    4 ar  
     2    1    8 ar  
     3    1   20 1   
     4    2    5 ar  
     5    2    8 ar  
     6    2   21 1   
     7    3    6 ar  
     8    3    9 ar  
     9    3   22 1   
    10    4   11 ar  
    11    4   23 1   
    12    5   11 ar  
    13    5   24 1   
    14    6   12 ar  
    15    6   25 1   
    16    7    9 ar  
    17    7   10 ar  
    18    7   26 1   
    19    8    9 1   
    20   10   12 ar  
    21   10   13 1   
    22   11   15 1   
    23   12   18 1   
    24   13   17 1   
    25   13   19 1   
    26   14   16 1   
    27   14   27 1   
    28   14   28 1   
    29   14   29 1   
    30   15   16 1   
    31   15   30 1   
    32   15   31 1   
    33   16   32 1   
    34   16   33 1   
    35   18   34 1   
@<TRIPOS>SUBSTRUCTURE
     1 2UV         1 TEMP              0 ****  ****    0 ROOT
