@<TRIPOS>MOLECULE
2UW
   43    45     1     0     0
SMALL
bcc


@<TRIPOS>ATOM
      1 C16        -0.0520    0.2910    0.0280 ca        1 2UW      0.028000
      2 C15         1.3450    0.2100    0.1590 ca        1 2UW     -0.218300
      3 C14         1.8500   -0.0540    1.4430 ca        1 2UW      0.468200
      4 N3          3.3130   -0.1720    1.6440 n4        1 2UW     -0.822300
      5 N2          1.0770   -0.2320    2.5550 nb        1 2UW     -0.666000
      6 C13        -0.2480   -0.1480    2.3850 ca        1 2UW      0.519200
      7 C12        -0.8670    0.1170    1.1410 ca        1 2UW     -0.356800
      8 S2         -2.6150    0.1310    1.0030 sy        1 2UW      1.494600
      9 O2         -2.8770   -0.3520   -0.2770 o         1 2UW     -0.635300
     10 O3         -3.0660   -0.5750    2.1190 o         1 2UW     -0.635300
     11 C1         -2.9100    1.7170    1.1310 cc        1 2UW     -0.598600
     12 S1         -3.2950    2.6300    2.4520 ss        1 2UW      0.352200
     13 C2         -2.9560    2.5260   -0.0300 cd        1 2UW     -0.034000
     14 C4         -3.2880    3.8570    0.2530 cd        1 2UW     -0.135000
     15 C3         -3.5010    4.0440    1.6310 cc        1 2UW     -0.168600
     16 C5         -3.8790    5.3160    2.2320 ca        1 2UW      0.489800
     17 C9         -4.1640    5.4200    3.6170 ca        1 2UW     -0.117900
     18 C8         -4.5550    6.6530    4.1590 ca        1 2UW     -0.031000
     19 CL1        -4.0510    4.0750    4.6460 cl        1 2UW     -0.044400
     20 N1         -3.9630    6.4080    1.4170 nb        1 2UW     -0.638000
     21 C6         -4.3330    7.5770    1.9460 ca        1 2UW      0.429200
     22 C7         -4.6430    7.7610    3.3160 ca        1 2UW     -0.189600
     23 C10        -5.0400    9.1110    3.8330 c3        1 2UW      0.191100
     24 C17        -6.4040    9.5910    3.1630 c3        1 2UW      0.591900
     25 F2         -6.9060   10.7060    3.7880 f         1 2UW     -0.228300
     26 F3         -6.2900    9.9400    1.8430 f         1 2UW     -0.228300
     27 F1         -7.4180    8.6750    3.2090 f         1 2UW     -0.228300
     28 C11        -3.9710   10.1610    3.5530 c3        1 2UW     -0.136100
     29 O1         -5.2850    8.9920    5.2240 oh        1 2UW     -0.577800
     30 H1         -0.4970    0.4700   -0.9700 ha        1 2UW      0.194000
     31 H2          1.9900    0.3430   -0.7230 ha        1 2UW      0.171000
     32 H3          3.7940    0.0490    0.7670 hn        1 2UW      0.473133
     33 H4          3.5440   -1.1320    1.9330 hn        1 2UW      0.473133
     34 H5         -0.8600   -0.3300    3.2990 h4        1 2UW      0.087100
     35 H6         -2.7830    2.1380   -1.0410 ha        1 2UW      0.175000
     36 H7         -3.3840    4.6430   -0.5040 ha        1 2UW      0.193000
     37 H8         -4.7930    6.7470    5.2340 ha        1 2UW      0.190000
     38 H9         -4.4060    8.4220    1.2310 h4        1 2UW      0.051100
     39 H10        -3.0310    9.8900    4.0900 hc        1 2UW      0.069700
     40 H11        -4.3200   11.1610    3.9130 hc        1 2UW      0.069700
     41 H12        -3.7680   10.2260    2.4580 hc        1 2UW      0.069700
     42 H13        -5.4700    9.8810    5.5620 ho        1 2UW      0.436000
     43 H33         3.6200    0.4770    2.3800 hn        1 2UW      0.473133
@<TRIPOS>BOND
     1    1    2 ar  
     2    1    7 ar  
     3    1   30 1   
     4    2    3 ar  
     5    2   31 1   
     6    3    4 1   
     7    3    5 ar  
     8    4   32 1   
     9    4   33 1   
    10    4   43 1   
    11    5    6 ar  
    12    6    7 ar  
    13    6   34 1   
    14    7    8 1   
    15    8    9 2   
    16    8   10 2   
    17    8   11 1   
    18   11   12 1   
    19   11   13 2   
    20   12   15 1   
    21   13   14 1   
    22   13   35 1   
    23   14   15 2   
    24   14   36 1   
    25   15   16 1   
    26   16   17 ar  
    27   16   20 ar  
    28   17   18 ar  
    29   17   19 1   
    30   18   22 ar  
    31   18   37 1   
    32   20   21 ar  
    33   21   22 ar  
    34   21   38 1   
    35   22   23 1   
    36   23   24 1   
    37   23   28 1   
    38   23   29 1   
    39   24   25 1   
    40   24   26 1   
    41   24   27 1   
    42   28   39 1   
    43   28   40 1   
    44   28   41 1   
    45   29   42 1   
@<TRIPOS>SUBSTRUCTURE
     1 2UW         1 TEMP              0 ****  ****    0 ROOT
