@<TRIPOS>MOLECULE
2UW
   42    44     1     0     0
SMALL
bcc


@<TRIPOS>ATOM
      1 C16         0.0060    0.4110    0.1190 ca        1 2UW      0.067000
      2 C15         1.3600    0.4110    0.3960 ca        1 2UW     -0.349300
      3 C14         1.7920    0.0910    1.7280 ca        1 2UW      0.722200
      4 N3          3.1300    0.1430    2.0460 nh        1 2UW     -0.957500
      5 N2          0.8820   -0.2390    2.7160 nb        1 2UW     -0.753000
      6 C13        -0.4090   -0.2250    2.3910 ca        1 2UW      0.555200
      7 C12        -0.9330    0.1020    1.1180 ca        1 2UW     -0.575800
      8 S2         -2.5660    0.0630    0.8090 sy        1 2UW      1.498600
      9 O2         -2.7840   -0.3400   -0.5180 o         1 2UW     -0.664300
     10 O3         -3.2030   -0.6740    1.8220 o         1 2UW     -0.664300
     11 C1         -2.9670    1.6720    0.9650 cc        1 2UW     -0.483600
     12 S1         -3.2200    2.5730    2.3140 ss        1 2UW      0.315200
     13 C2         -3.1750    2.4530   -0.1840 cd        1 2UW     -0.057000
     14 C4         -3.5270    3.7810    0.1270 cd        1 2UW     -0.127000
     15 C3         -3.5810    3.9790    1.5140 cc        1 2UW     -0.214600
     16 C5         -3.9170    5.2470    2.1440 ca        1 2UW      0.528800
     17 C9         -3.9930    5.3800    3.5560 ca        1 2UW     -0.127900
     18 C8         -4.3170    6.6190    4.1250 ca        1 2UW     -0.031000
     19 CL1        -3.7010    4.0700    4.5930 cl        1 2UW     -0.049400
     20 N1         -4.1610    6.3180    1.3330 nb        1 2UW     -0.648000
     21 C6         -4.4690    7.4920    1.8890 ca        1 2UW      0.428200
     22 C7         -4.5570    7.7070    3.2850 ca        1 2UW     -0.217600
     23 C10        -4.8710    9.0660    3.8290 c3        1 2UW      0.201100
     24 C17        -6.3230    9.5410    3.3730 c3        1 2UW      0.588900
     25 F2         -6.7190   10.6700    4.0480 f         1 2UW     -0.233300
     26 F3         -6.4220    9.8720    2.0470 f         1 2UW     -0.233300
     27 F1         -7.3230    8.6360    3.5940 f         1 2UW     -0.233300
     28 C11        -3.8610   10.1080    3.3620 c3        1 2UW     -0.135100
     29 O1         -4.8990    8.9830    5.2440 oh        1 2UW     -0.575800
     30 H1         -0.3490    0.6420   -0.9010 ha        1 2UW      0.154000
     31 H2          2.0930    0.6510   -0.3850 ha        1 2UW      0.147000
     32 H3          3.4450   -0.1740    2.9300 hn        1 2UW      0.439300
     33 H4          3.7830    0.2120    1.3060 hn        1 2UW      0.439300
     34 H5         -1.1020   -0.5170    3.2100 h4        1 2UW      0.046100
     35 H6         -3.0890    2.0620   -1.2050 ha        1 2UW      0.178000
     36 H7         -3.7330    4.5490   -0.6230 ha        1 2UW      0.178000
     37 H8         -4.3830    6.7350    5.2210 ha        1 2UW      0.180000
     38 H9         -4.6730    8.3170    1.1770 h4        1 2UW      0.040100
     39 H10        -2.8480    9.8440    3.7500 hc        1 2UW      0.067033
     40 H11        -4.1480   11.1170    3.7490 hc        1 2UW      0.067033
     41 H12        -3.8320   10.1450    2.2470 hc        1 2UW      0.067033
     42 H13        -5.0100    9.8840    5.5820 ho        1 2UW      0.427000
@<TRIPOS>BOND
     1    1    2 ar  
     2    1    7 ar  
     3    1   30 1   
     4    2    3 ar  
     5    2   31 1   
     6    3    4 1   
     7    3    5 ar  
     8    4   32 1   
     9    4   33 1   
    10    5    6 ar  
    11    6    7 ar  
    12    6   34 1   
    13    7    8 1   
    14    8    9 2   
    15    8   10 2   
    16    8   11 1   
    17   11   12 1   
    18   11   13 2   
    19   12   15 1   
    20   13   14 1   
    21   13   35 1   
    22   14   15 2   
    23   14   36 1   
    24   15   16 1   
    25   16   17 ar  
    26   16   20 ar  
    27   17   18 ar  
    28   17   19 1   
    29   18   22 ar  
    30   18   37 1   
    31   20   21 ar  
    32   21   22 ar  
    33   21   38 1   
    34   22   23 1   
    35   23   24 1   
    36   23   28 1   
    37   23   29 1   
    38   24   25 1   
    39   24   26 1   
    40   24   27 1   
    41   28   39 1   
    42   28   40 1   
    43   28   41 1   
    44   29   42 1   
@<TRIPOS>SUBSTRUCTURE
     1 2UW         1 TEMP              0 ****  ****    0 ROOT
