@<TRIPOS>MOLECULE
2UW
   42    44     1     0     0
SMALL
bcc


@<TRIPOS>ATOM
      1 C16         0.0290    0.4140    0.1490 ca        1 2UW      0.067000
      2 C15         1.3730    0.3960    0.4670 ca        1 2UW     -0.349300
      3 C14         1.7620    0.0630    1.8090 ca        1 2UW      0.721200
      4 N3          3.0900    0.0980    2.1670 nv        1 2UW     -0.957500
      5 N2          0.8190   -0.2630    2.7680 nb        1 2UW     -0.753000
      6 C13        -0.4620   -0.2310    2.4040 ca        1 2UW      0.555200
      7 C12        -0.9430    0.1090    1.1180 ca        1 2UW     -0.575800
      8 S2         -2.5660    0.0910    0.7600 sy        1 2UW      1.498600
      9 O2         -2.7480   -0.2950   -0.5770 o         1 2UW     -0.663800
     10 O3         -3.2410   -0.6500    1.7460 o         1 2UW     -0.663800
     11 C1         -2.9550    1.7030    0.9220 cc        1 2UW     -0.481600
     12 S1         -3.2470    2.5890    2.2730 ss        1 2UW      0.315200
     13 C2         -3.1130    2.5000   -0.2240 cd        1 2UW     -0.057000
     14 C4         -3.4610    3.8280    0.0920 cd        1 2UW     -0.126000
     15 C3         -3.5630    4.0090    1.4790 cc        1 2UW     -0.216600
     16 C5         -3.9070    5.2740    2.1110 ca        1 2UW      0.531800
     17 C9         -4.0280    5.3920    3.5220 ca        1 2UW     -0.125900
     18 C8         -4.3560    6.6280    4.0930 ca        1 2UW     -0.046000
     19 Cl1        -3.7900    4.0660    4.5540 cl        1 2UW     -0.049400
     20 N1         -4.1160    6.3560    1.3060 nb        1 2UW     -0.649000
     21 C6         -4.4270    7.5280    1.8670 ca        1 2UW      0.436200
     22 C7         -4.5510    7.7310    3.2610 ca        1 2UW     -0.252600
     23 C10        -4.8710    9.0840    3.8220 c3        1 2UW      0.187100
     24 C17        -6.3930    9.4560    3.5580 c3        1 2UW      0.637900
     25 F2         -6.7460   10.6670    4.0930 f         1 2UW     -0.228300
     26 F3         -6.7040    9.5600    2.2260 f         1 2UW     -0.228300
     27 F1         -7.2930    8.5640    4.0690 f         1 2UW     -0.228300
     28 C11        -3.9900   10.1700    3.2190 c3        1 2UW     -0.137100
     29 O1         -4.7820    9.0880    5.2410 oh        1 2UW     -0.575800
     30 H1         -0.2930    0.6550   -0.8790 ha        1 2UW      0.154000
     31 H2          2.1320    0.6310   -0.2900 ha        1 2UW      0.147000
     32 H3          3.7660    0.1600    1.4480 hn        1 2UW      0.438800
     33 H4          3.3740   -0.2310    3.0580 hn        1 2UW      0.438800
     34 H5         -1.1830   -0.5210    3.2000 h4        1 2UW      0.045100
     35 H6         -2.9950    2.1220   -1.2460 ha        1 2UW      0.178000
     36 H7         -3.6310    4.6080   -0.6550 ha        1 2UW      0.178000
     37 H8         -4.4720    6.7290    5.1860 ha        1 2UW      0.173000
     38 H9         -4.6070    8.3600    1.1590 h4        1 2UW      0.039100
     39 H10        -2.9140    9.8940    3.3240 hc        1 2UW      0.067033
     40 H11        -4.1760   11.1350    3.7510 hc        1 2UW      0.067033
     41 H12        -4.2280   10.3050    2.1360 hc        1 2UW      0.067033
     42 H13        -3.8440    9.1470    5.4660 ho        1 2UW      0.422000
@<TRIPOS>BOND
     1    1    2 ar  
     2    1    7 ar  
     3    1   30 1   
     4    2    3 ar  
     5    2   31 1   
     6    3    4 1   
     7    3    5 ar  
     8    4   32 1   
     9    4   33 1   
    10    5    6 ar  
    11    6    7 ar  
    12    6   34 1   
    13    7    8 1   
    14    8    9 2   
    15    8   10 2   
    16    8   11 1   
    17   11   12 1   
    18   11   13 2   
    19   12   15 1   
    20   13   14 1   
    21   13   35 1   
    22   14   15 2   
    23   14   36 1   
    24   15   16 1   
    25   16   17 ar  
    26   16   20 ar  
    27   17   18 ar  
    28   17   19 1   
    29   18   22 ar  
    30   18   37 1   
    31   20   21 ar  
    32   21   22 ar  
    33   21   38 1   
    34   22   23 1   
    35   23   24 1   
    36   23   28 1   
    37   23   29 1   
    38   24   25 1   
    39   24   26 1   
    40   24   27 1   
    41   28   39 1   
    42   28   40 1   
    43   28   41 1   
    44   29   42 1   
@<TRIPOS>SUBSTRUCTURE
     1 2UW         1 TEMP              0 ****  ****    0 ROOT
