@<TRIPOS>MOLECULE
2UX
   46    48     1     0     0
SMALL
bcc


@<TRIPOS>ATOM
      1 C19         0.0790    0.1780    0.0660 ca        1 2UX      0.065000
      2 C18         1.4420    0.2400    0.2830 ca        1 2UX     -0.351300
      3 C17         1.9310    0.1700    1.6330 ca        1 2UX      0.727200
      4 N2          3.2780    0.2800    1.8800 nh        1 2UX     -0.959500
      5 N1          1.0640    0.0190    2.7010 nb        1 2UX     -0.754000
      6 C16        -0.2380   -0.0370    2.4320 ca        1 2UX      0.562200
      7 C15        -0.8160    0.0460    1.1430 ca        1 2UX     -0.580800
      8 S1         -2.4550   -0.0590    0.9140 sy        1 2UX      1.461600
      9 O2         -2.7180   -0.5320   -0.3850 o         1 2UX     -0.663300
     10 O3         -3.0340   -0.7520    1.9910 o         1 2UX     -0.663300
     11 C5         -2.9050    1.5630    1.0040 ca        1 2UX     -0.361500
     12 C6         -3.2510    2.1460    2.2290 ca        1 2UX     -0.020000
     13 C1         -3.6380    3.4790    2.3080 ca        1 2UX     -0.145500
     14 C4         -2.9760    2.3530   -0.1500 ca        1 2UX     -0.020000
     15 C3         -3.3650    3.6870   -0.0850 ca        1 2UX     -0.145500
     16 C2         -3.6960    4.2660    1.1490 cp        1 2UX      0.020000
     17 C7         -4.0990    5.6690    1.2240 cp        1 2UX     -0.038000
     18 C12        -3.6510    6.4820    2.2740 ca        1 2UX     -0.117000
     19 C11        -4.0320    7.8200    2.3440 ca        1 2UX     -0.099500
     20 C8         -4.9430    6.2190    0.2480 ca        1 2UX     -0.117000
     21 C9         -5.3270    7.5540    0.3200 ca        1 2UX     -0.099500
     22 C10        -4.8710    8.3660    1.3670 ca        1 2UX     -0.094300
     23 C13        -5.2640    9.8150    1.4140 c3        1 2UX      0.195100
     24 C20        -6.8430    9.9780    1.5500 c3        1 2UX      0.588900
     25 F2         -7.1920   11.2730    1.8540 f         1 2UX     -0.236300
     26 F3         -7.5500    9.6870    0.4130 f         1 2UX     -0.236300
     27 F1         -7.4230    9.2270    2.5340 f         1 2UX     -0.236300
     28 C14        -4.8160   10.5610    0.1620 c3        1 2UX     -0.134100
     29 O1         -4.7010   10.3980    2.5780 oh        1 2UX     -0.574800
     30 H1         -0.3210    0.2180   -0.9630 ha        1 2UX      0.155000
     31 H2          2.1400    0.3400   -0.5570 ha        1 2UX      0.147000
     32 H3          3.6330    0.1520    2.7960 hn        1 2UX      0.441800
     33 H4          3.9020    0.2540    1.1150 hn        1 2UX      0.441800
     34 H5         -0.8940   -0.1780    3.3180 h4        1 2UX      0.042100
     35 H6         -3.2300    1.5260    3.1440 ha        1 2UX      0.152500
     36 H7         -3.9130    3.9160    3.2800 ha        1 2UX      0.143500
     37 H8         -2.7320    1.9000   -1.1270 ha        1 2UX      0.152500
     38 H9         -3.4100    4.2910   -1.0040 ha        1 2UX      0.143500
     39 H10        -2.9890    6.0630    3.0470 ha        1 2UX      0.142500
     40 H11        -3.6740    8.4510    3.1740 ha        1 2UX      0.152500
     41 H12        -5.3140    5.5880   -0.5740 ha        1 2UX      0.142500
     42 H13        -6.0060    7.9690   -0.4430 ha        1 2UX      0.152500
     43 H14        -3.7020   10.5410    0.0980 hc        1 2UX      0.064700
     44 H15        -5.1610   11.6230    0.2060 hc        1 2UX      0.064700
     45 H16        -5.2470   10.0800   -0.7480 hc        1 2UX      0.064700
     46 H17        -4.8820   11.3470    2.5390 ho        1 2UX      0.423000
@<TRIPOS>BOND
     1    1    2 ar  
     2    1    7 ar  
     3    1   30 1   
     4    2    3 ar  
     5    2   31 1   
     6    3    4 1   
     7    3    5 ar  
     8    4   32 1   
     9    4   33 1   
    10    5    6 ar  
    11    6    7 ar  
    12    6   34 1   
    13    7    8 1   
    14    8    9 2   
    15    8   10 2   
    16    8   11 1   
    17   11   12 ar  
    18   11   14 ar  
    19   12   13 ar  
    20   12   35 1   
    21   13   16 ar  
    22   13   36 1   
    23   14   15 ar  
    24   14   37 1   
    25   15   16 ar  
    26   15   38 1   
    27   16   17 1   
    28   17   18 ar  
    29   17   20 ar  
    30   18   19 ar  
    31   18   39 1   
    32   19   22 ar  
    33   19   40 1   
    34   20   21 ar  
    35   20   41 1   
    36   21   22 ar  
    37   21   42 1   
    38   22   23 1   
    39   23   24 1   
    40   23   28 1   
    41   23   29 1   
    42   24   25 1   
    43   24   26 1   
    44   24   27 1   
    45   28   43 1   
    46   28   44 1   
    47   28   45 1   
    48   29   46 1   
@<TRIPOS>SUBSTRUCTURE
     1 2UX         1 TEMP              0 ****  ****    0 ROOT
