@<TRIPOS>MOLECULE
2UX
   47    49     1     0     0
SMALL
bcc


@<TRIPOS>ATOM
      1 C19         0.0980    0.1710    0.0260 ca        1 2UX      0.029000
      2 C18         1.4860    0.1680    0.2470 ca        1 2UX     -0.218300
      3 C17         1.9170    0.0550    1.5800 ca        1 2UX      0.472200
      4 N2          3.3680    0.0280    1.8800 n4        1 2UX     -0.823300
      5 N1          1.0830   -0.0490    2.6560 nb        1 2UX     -0.665000
      6 C16        -0.2310   -0.0430    2.4000 ca        1 2UX      0.524200
      7 C15        -0.7800    0.0710    1.1000 ca        1 2UX     -0.365800
      8 S1         -2.5090   -0.0010    0.8610 sy        1 2UX      1.446600
      9 O2         -2.6820   -0.4900   -0.4340 o         1 2UX     -0.630300
     10 O3         -2.9990   -0.7170    1.9540 o         1 2UX     -0.630300
     11 C5         -2.8820    1.5990    0.9630 ca        1 2UX     -0.448500
     12 C6         -3.2210    2.1870    2.1940 ca        1 2UX     -0.007500
     13 C1         -3.5980    3.5200    2.2770 ca        1 2UX     -0.149000
     14 C4         -2.9530    2.4000   -0.1890 ca        1 2UX     -0.007500
     15 C3         -3.3320    3.7330   -0.1180 ca        1 2UX     -0.149000
     16 C2         -3.6590    4.3130    1.1190 cp        1 2UX      0.070000
     17 C7         -4.0700    5.7120    1.2000 cp        1 2UX     -0.072000
     18 C12        -3.6500    6.5150    2.2690 ca        1 2UX     -0.108500
     19 C11        -4.0500    7.8470    2.3510 ca        1 2UX     -0.098500
     20 C8         -4.9010    6.2650    0.2140 ca        1 2UX     -0.108500
     21 C9         -5.3070    7.5930    0.3010 ca        1 2UX     -0.098500
     22 C10        -4.8830    8.3940    1.3690 ca        1 2UX     -0.072300
     23 C13        -5.3140    9.8330    1.4430 c3        1 2UX      0.187100
     24 C20        -6.8970    9.9430    1.5910 c3        1 2UX      0.590900
     25 F2         -7.2840   11.2200    1.9150 f         1 2UX     -0.231967
     26 F3         -7.5970    9.6390    0.4540 f         1 2UX     -0.231967
     27 F1         -7.4400    9.1560    2.5680 f         1 2UX     -0.231967
     28 C14        -4.8940   10.6140    0.2040 c3        1 2UX     -0.134100
     29 O1         -4.7560   10.4050    2.6150 oh        1 2UX     -0.577800
     30 H1         -0.2890    0.2310   -1.0100 ha        1 2UX      0.197000
     31 H2          2.1800    0.2430   -0.6030 ha        1 2UX      0.173000
     32 H3          3.6160   -0.8780    2.3000 hn        1 2UX      0.473800
     33 H4          3.8960    0.1610    1.0120 hn        1 2UX      0.473800
     34 H5         -0.8920   -0.1600    3.2890 h4        1 2UX      0.085100
     35 H6         -3.2110    1.5650    3.1080 ha        1 2UX      0.154000
     36 H7         -3.8740    3.9540    3.2510 ha        1 2UX      0.159000
     37 H8         -2.7230    1.9490   -1.1720 ha        1 2UX      0.154000
     38 H9         -3.3820    4.3400   -1.0370 ha        1 2UX      0.159000
     39 H10        -2.9970    6.0960    3.0490 ha        1 2UX      0.140500
     40 H11        -3.7160    8.4710    3.1970 ha        1 2UX      0.161500
     41 H12        -5.2530    5.6420   -0.6230 ha        1 2UX      0.140500
     42 H13        -5.9820    8.0080   -0.4660 ha        1 2UX      0.161500
     43 H14        -5.3200   10.1440   -0.7140 hc        1 2UX      0.067033
     44 H15        -3.7800   10.6270    0.1310 hc        1 2UX      0.067033
     45 H16        -5.2660   11.6660    0.2740 hc        1 2UX      0.067033
     46 H17        -4.9760   11.3480    2.6070 ho        1 2UX      0.430000
     47 H23         3.6020    0.7750    2.5460 hn        1 2UX      0.473800
@<TRIPOS>BOND
     1    1    2 ar  
     2    1    7 ar  
     3    1   30 1   
     4    2    3 ar  
     5    2   31 1   
     6    3    4 1   
     7    3    5 ar  
     8    4   32 1   
     9    4   33 1   
    10    4   47 1   
    11    5    6 ar  
    12    6    7 ar  
    13    6   34 1   
    14    7    8 1   
    15    8    9 2   
    16    8   10 2   
    17    8   11 1   
    18   11   12 ar  
    19   11   14 ar  
    20   12   13 ar  
    21   12   35 1   
    22   13   16 ar  
    23   13   36 1   
    24   14   15 ar  
    25   14   37 1   
    26   15   16 ar  
    27   15   38 1   
    28   16   17 1   
    29   17   18 ar  
    30   17   20 ar  
    31   18   19 ar  
    32   18   39 1   
    33   19   22 ar  
    34   19   40 1   
    35   20   21 ar  
    36   20   41 1   
    37   21   22 ar  
    38   21   42 1   
    39   22   23 1   
    40   23   24 1   
    41   23   28 1   
    42   23   29 1   
    43   24   25 1   
    44   24   26 1   
    45   24   27 1   
    46   28   43 1   
    47   28   44 1   
    48   28   45 1   
    49   29   46 1   
@<TRIPOS>SUBSTRUCTURE
     1 2UX         1 TEMP              0 ****  ****    0 ROOT
