@<TRIPOS>MOLECULE
2UX
   46    48     1     0     0
SMALL
bcc


@<TRIPOS>ATOM
      1 C19         0.0810    0.1800    0.0640 ca        1 2UX      0.065000
      2 C18         1.4440    0.2440    0.2790 ca        1 2UX     -0.351300
      3 C17         1.9360    0.1760    1.6270 ca        1 2UX      0.727200
      4 N2          3.2830    0.2870    1.8720 nv        1 2UX     -0.959500
      5 N1          1.0710    0.0260    2.6980 nb        1 2UX     -0.754000
      6 C16        -0.2320   -0.0320    2.4300 ca        1 2UX      0.562200
      7 C15        -0.8120    0.0490    1.1430 ca        1 2UX     -0.580800
      8 S1         -2.4520   -0.0580    0.9170 sy        1 2UX      1.461600
      9 O2         -2.7160   -0.5320   -0.3810 o         1 2UX     -0.663300
     10 O3         -3.0270   -0.7510    1.9960 o         1 2UX     -0.663300
     11 C5         -2.9040    1.5640    1.0060 ca        1 2UX     -0.361500
     12 C6         -3.2470    2.1470    2.2320 ca        1 2UX     -0.020000
     13 C1         -3.6350    3.4800    2.3100 ca        1 2UX     -0.145500
     14 C4         -2.9780    2.3520   -0.1480 ca        1 2UX     -0.020000
     15 C3         -3.3680    3.6850   -0.0840 ca        1 2UX     -0.145500
     16 C2         -3.6970    4.2660    1.1500 cp        1 2UX      0.020000
     17 C7         -4.1020    5.6680    1.2250 cp        1 2UX     -0.038000
     18 C12        -3.6510    6.4830    2.2730 ca        1 2UX     -0.117000
     19 C11        -4.0340    7.8210    2.3430 ca        1 2UX     -0.099500
     20 C8         -4.9490    6.2160    0.2510 ca        1 2UX     -0.117000
     21 C9         -5.3350    7.5510    0.3230 ca        1 2UX     -0.099500
     22 C10        -4.8760    8.3650    1.3670 ca        1 2UX     -0.094300
     23 C13        -5.2710    9.8130    1.4140 c3        1 2UX      0.195100
     24 C20        -6.8500    9.9740    1.5550 c3        1 2UX      0.588900
     25 F2         -7.1990   11.2690    1.8580 f         1 2UX     -0.236300
     26 F3         -7.5600    9.6810    0.4210 f         1 2UX     -0.236300
     27 F1         -7.4250    9.2240    2.5420 f         1 2UX     -0.236300
     28 C14        -4.8280   10.5590    0.1600 c3        1 2UX     -0.134100
     29 O1         -4.7050   10.3980    2.5760 oh        1 2UX     -0.574800
     30 H1         -0.3210    0.2180   -0.9650 ha        1 2UX      0.155000
     31 H2          2.1410    0.3440   -0.5630 ha        1 2UX      0.147000
     32 H3          3.6400    0.1620    2.7870 hn        1 2UX      0.441800
     33 H4          3.9060    0.2610    1.1060 hn        1 2UX      0.441800
     34 H5         -0.8860   -0.1720    3.3180 h4        1 2UX      0.042100
     35 H6         -3.2230    1.5290    3.1470 ha        1 2UX      0.152500
     36 H7         -3.9080    3.9180    3.2830 ha        1 2UX      0.143500
     37 H8         -2.7360    1.8980   -1.1260 ha        1 2UX      0.152500
     38 H9         -3.4170    4.2890   -1.0030 ha        1 2UX      0.143500
     39 H10        -2.9860    6.0660    3.0440 ha        1 2UX      0.142500
     40 H11        -3.6730    8.4530    3.1710 ha        1 2UX      0.152500
     41 H12        -5.3220    5.5840   -0.5690 ha        1 2UX      0.142500
     42 H13        -6.0160    7.9640   -0.4380 ha        1 2UX      0.152500
     43 H14        -5.2610   10.0760   -0.7480 hc        1 2UX      0.064700
     44 H15        -5.1740   11.6200    0.2040 hc        1 2UX      0.064700
     45 H16        -3.7140   10.5400    0.0920 hc        1 2UX      0.064700
     46 H17        -4.8880   11.3470    2.5360 ho        1 2UX      0.423000
@<TRIPOS>BOND
     1    1    2 ar  
     2    1    7 ar  
     3    1   30 1   
     4    2    3 ar  
     5    2   31 1   
     6    3    4 1   
     7    3    5 ar  
     8    4   32 1   
     9    4   33 1   
    10    5    6 ar  
    11    6    7 ar  
    12    6   34 1   
    13    7    8 1   
    14    8    9 2   
    15    8   10 2   
    16    8   11 1   
    17   11   12 ar  
    18   11   14 ar  
    19   12   13 ar  
    20   12   35 1   
    21   13   16 ar  
    22   13   36 1   
    23   14   15 ar  
    24   14   37 1   
    25   15   16 ar  
    26   15   38 1   
    27   16   17 1   
    28   17   18 ar  
    29   17   20 ar  
    30   18   19 ar  
    31   18   39 1   
    32   19   22 ar  
    33   19   40 1   
    34   20   21 ar  
    35   20   41 1   
    36   21   22 ar  
    37   21   42 1   
    38   22   23 1   
    39   23   24 1   
    40   23   28 1   
    41   23   29 1   
    42   24   25 1   
    43   24   26 1   
    44   24   27 1   
    45   28   43 1   
    46   28   44 1   
    47   28   45 1   
    48   29   46 1   
@<TRIPOS>SUBSTRUCTURE
     1 2UX         1 TEMP              0 ****  ****    0 ROOT
