@<TRIPOS>MOLECULE
2UY
   56    59     1     0     0
SMALL
bcc


@<TRIPOS>ATOM
      1 C18         0.1560   -0.0550    0.6190 ca        1 2UY     -0.146500
      2 C19         1.5080    0.1860    0.8390 ca        1 2UY     -0.115000
      3 C20         1.9830    0.4310    2.1260 ca        1 2UY     -0.145000
      4 C21         1.0920    0.4370    3.1980 ca        1 2UY     -0.115000
      5 C22        -0.2660    0.2050    2.9980 ca        1 2UY     -0.146500
      6 C17        -0.7560   -0.0440    1.6990 ca        1 2UY      0.135600
      7 N3         -2.1440   -0.1760    1.4500 nh        1 2UY     -0.713300
      8 C6         -2.9370   -1.1220    2.1350 ca        1 2UY      0.651200
      9 N2         -2.3740   -1.9550    3.0600 nb        1 2UY     -0.648000
     10 C10        -3.1660   -2.8060    3.7400 ca        1 2UY      0.211200
     11 S1         -2.4060   -3.8820    4.8810 sy        1 2UY      1.384200
     12 O2         -3.4370   -4.6450    5.4570 o         1 2UY     -0.652300
     13 O3         -1.3800   -4.5830    4.2470 o         1 2UY     -0.652300
     14 C12        -1.8210   -2.8090    5.9820 ca        1 2UY     -0.598800
     15 C16        -0.6370   -2.0800    5.7610 ca        1 2UY      0.083000
     16 C15        -0.1540   -1.2130    6.7220 ca        1 2UY     -0.359300
     17 C14        -0.8830   -1.0620    7.9500 ca        1 2UY      0.733200
     18 N5         -0.4420   -0.1840    8.9070 nh        1 2UY     -0.961500
     19 N4         -2.0480   -1.7760    8.1840 nb        1 2UY     -0.756000
     20 C13        -2.4660   -2.5980    7.2250 ca        1 2UY      0.564200
     21 C9         -4.5540   -2.8830    3.5460 ca        1 2UY     -0.197300
     22 C8         -5.1440   -2.0360    2.6090 ca        1 2UY     -0.070000
     23 C7         -4.3540   -1.1410    1.8870 cp        1 2UY     -0.254800
     24 C4         -5.0160   -0.2460    0.9210 cp        1 2UY      0.477800
     25 C3         -6.0850    0.5550    1.3810 ca        1 2UY     -0.237300
     26 C2         -6.7490    1.3880    0.4800 ca        1 2UY     -0.042000
     27 N1         -4.6140   -0.2390   -0.3770 nb        1 2UY     -0.671000
     28 C5         -5.2660    0.5630   -1.2300 ca        1 2UY      0.421200
     29 C1         -6.3410    1.4030   -0.8580 ca        1 2UY     -0.219600
     30 C11        -6.9920    2.2950   -1.8690 c3        1 2UY      0.201100
     31 C24        -7.6790    1.4400   -3.0260 c3        1 2UY      0.587900
     32 F2         -8.4790    2.2220   -3.8240 f         1 2UY     -0.234300
     33 F3         -6.8000    0.8410   -3.8900 f         1 2UY     -0.234300
     34 F1         -8.4990    0.4360   -2.5940 f         1 2UY     -0.234300
     35 C23        -5.9900    3.2470   -2.5120 c3        1 2UY     -0.135100
     36 O1         -8.0340    3.0110   -1.2260 oh        1 2UY     -0.575800
     37 H1         -0.1960   -0.2540   -0.4060 ha        1 2UY      0.139000
     38 H2          2.2050    0.1750   -0.0120 ha        1 2UY      0.129500
     39 H3          3.0540    0.6160    2.2940 ha        1 2UY      0.132000
     40 H4          1.4610    0.6280    4.2170 ha        1 2UY      0.129500
     41 H5         -0.9490    0.2170    3.8600 ha        1 2UY      0.139000
     42 H6         -2.3690   -0.1140    0.4750 hn        1 2UY      0.436800
     43 H7         -0.0920   -2.2080    4.8070 ha        1 2UY      0.169000
     44 H8          0.7700   -0.6460    6.5490 ha        1 2UY      0.146000
     45 H9         -0.9030   -0.1120    9.7810 hn        1 2UY      0.443800
     46 H10         0.4350    0.2540    8.7840 hn        1 2UY      0.443800
     47 H11        -3.3970   -3.1590    7.4600 h4        1 2UY      0.048100
     48 H12        -5.1570   -3.6040    4.1220 ha        1 2UY      0.177000
     49 H13        -6.2310   -2.0730    2.4330 ha        1 2UY      0.150000
     50 H14        -6.3830    0.5220    2.4390 ha        1 2UY      0.155000
     51 H15        -7.5840    2.0250    0.8150 ha        1 2UY      0.167000
     52 H16        -4.9210    0.5220   -2.2820 h4        1 2UY      0.034100
     53 H17        -5.1660    2.6710   -2.9950 hc        1 2UY      0.066033
     54 H18        -6.5000    3.8680   -3.2890 hc        1 2UY      0.066033
     55 H19        -5.5620    3.9190   -1.7300 hc        1 2UY      0.066033
     56 H20        -8.3770    3.6510   -1.8650 ho        1 2UY      0.426000
@<TRIPOS>BOND
     1    1    2 ar  
     2    1    6 ar  
     3    1   37 1   
     4    2    3 ar  
     5    2   38 1   
     6    3    4 ar  
     7    3   39 1   
     8    4    5 ar  
     9    4   40 1   
    10    5    6 ar  
    11    5   41 1   
    12    6    7 1   
    13    7    8 1   
    14    7   42 1   
    15    8    9 ar  
    16    8   23 ar  
    17    9   10 ar  
    18   10   11 1   
    19   10   21 ar  
    20   11   12 2   
    21   11   13 2   
    22   11   14 1   
    23   14   15 ar  
    24   14   20 ar  
    25   15   16 ar  
    26   15   43 1   
    27   16   17 ar  
    28   16   44 1   
    29   17   18 1   
    30   17   19 ar  
    31   18   45 1   
    32   18   46 1   
    33   19   20 ar  
    34   20   47 1   
    35   21   22 ar  
    36   21   48 1   
    37   22   23 ar  
    38   22   49 1   
    39   23   24 1   
    40   24   25 ar  
    41   24   27 ar  
    42   25   26 ar  
    43   25   50 1   
    44   26   29 ar  
    45   26   51 1   
    46   27   28 ar  
    47   28   29 ar  
    48   28   52 1   
    49   29   30 1   
    50   30   31 1   
    51   30   35 1   
    52   30   36 1   
    53   31   32 1   
    54   31   33 1   
    55   31   34 1   
    56   35   53 1   
    57   35   54 1   
    58   35   55 1   
    59   36   56 1   
@<TRIPOS>SUBSTRUCTURE
     1 2UY         1 TEMP              0 ****  ****    0 ROOT
