@<TRIPOS>MOLECULE
2UY
   56    59     1     0     0
SMALL
bcc


@<TRIPOS>ATOM
      1 C18         0.1540   -0.0660    0.6140 ca        1 2UY     -0.146500
      2 C19         1.5070    0.1720    0.8330 ca        1 2UY     -0.115000
      3 C20         1.9840    0.4190    2.1190 ca        1 2UY     -0.145000
      4 C21         1.0930    0.4280    3.1910 ca        1 2UY     -0.115000
      5 C22        -0.2650    0.1990    2.9920 ca        1 2UY     -0.146500
      6 C17        -0.7570   -0.0520    1.6950 ca        1 2UY      0.135600
      7 N3         -2.1450   -0.1800    1.4460 nu        1 2UY     -0.713300
      8 C6         -2.9400   -1.1230    2.1340 ca        1 2UY      0.651200
      9 N2         -2.3780   -1.9570    3.0590 nb        1 2UY     -0.648000
     10 C10        -3.1710   -2.8060    3.7410 ca        1 2UY      0.211200
     11 S1         -2.4120   -3.8830    4.8810 sy        1 2UY      1.384200
     12 O2         -3.4430   -4.6430    5.4600 o         1 2UY     -0.652300
     13 O3         -1.3900   -4.5880    4.2450 o         1 2UY     -0.652300
     14 C12        -1.8210   -2.8120    5.9800 ca        1 2UY     -0.598800
     15 C16        -0.6350   -2.0870    5.7570 ca        1 2UY      0.083000
     16 C15        -0.1470   -1.2210    6.7160 ca        1 2UY     -0.359300
     17 C14        -0.8740   -1.0660    7.9450 ca        1 2UY      0.733200
     18 N5         -0.4280   -0.1890    8.9010 nv        1 2UY     -0.961500
     19 N4         -2.0400   -1.7760    8.1810 nb        1 2UY     -0.756000
     20 C13        -2.4630   -2.5970    7.2240 ca        1 2UY      0.564200
     21 C9         -4.5590   -2.8780    3.5500 ca        1 2UY     -0.197300
     22 C8         -5.1490   -2.0300    2.6130 ca        1 2UY     -0.070000
     23 C7         -4.3580   -1.1380    1.8890 cp        1 2UY     -0.254800
     24 C4         -5.0190   -0.2420    0.9240 cp        1 2UY      0.477800
     25 C3         -6.0850    0.5620    1.3860 ca        1 2UY     -0.237300
     26 C2         -6.7470    1.3970    0.4860 ca        1 2UY     -0.042000
     27 N1         -4.6190   -0.2360   -0.3750 nb        1 2UY     -0.671000
     28 C5         -5.2710    0.5670   -1.2270 ca        1 2UY      0.421200
     29 C1         -6.3420    1.4100   -0.8530 ca        1 2UY     -0.219600
     30 C11        -6.9920    2.3040   -1.8630 c3        1 2UY      0.201100
     31 C24        -7.6840    1.4510   -3.0190 c3        1 2UY      0.587900
     32 F2         -8.4830    2.2350   -3.8160 f         1 2UY     -0.234300
     33 F3         -6.8090    0.8490   -3.8840 f         1 2UY     -0.234300
     34 F1         -8.5060    0.4490   -2.5850 f         1 2UY     -0.234300
     35 C23        -5.9890    3.2530   -2.5090 c3        1 2UY     -0.135100
     36 O1         -8.0300    3.0240   -1.2190 oh        1 2UY     -0.575800
     37 H1         -0.1990   -0.2660   -0.4100 ha        1 2UY      0.139000
     38 H2          2.2040    0.1590   -0.0190 ha        1 2UY      0.129500
     39 H3          3.0540    0.6010    2.2860 ha        1 2UY      0.132000
     40 H4          1.4630    0.6210    4.2100 ha        1 2UY      0.129500
     41 H5         -0.9490    0.2150    3.8550 ha        1 2UY      0.139000
     42 H6         -2.3720   -0.1200    0.4730 hn        1 2UY      0.436800
     43 H7         -0.0920   -2.2170    4.8020 ha        1 2UY      0.169000
     44 H8          0.7780   -0.6570    6.5410 ha        1 2UY      0.146000
     45 H9          0.4500    0.2460    8.7760 hn        1 2UY      0.443800
     46 H10        -0.8870   -0.1140    9.7750 hn        1 2UY      0.443800
     47 H11        -3.3960   -3.1550    7.4610 h4        1 2UY      0.048100
     48 H12        -5.1630   -3.5970    4.1280 ha        1 2UY      0.177000
     49 H13        -6.2360   -2.0640    2.4400 ha        1 2UY      0.150000
     50 H14        -6.3800    0.5300    2.4440 ha        1 2UY      0.155000
     51 H15        -7.5800    2.0360    0.8210 ha        1 2UY      0.167000
     52 H16        -4.9270    0.5240   -2.2790 h4        1 2UY      0.034100
     53 H17        -5.5570    3.9230   -1.7280 hc        1 2UY      0.066033
     54 H18        -5.1670    2.6740   -2.9930 hc        1 2UY      0.066033
     55 H19        -6.4970    3.8750   -3.2850 hc        1 2UY      0.066033
     56 H20        -8.3730    3.6640   -1.8580 ho        1 2UY      0.426000
@<TRIPOS>BOND
     1    1    2 ar  
     2    1    6 ar  
     3    1   37 1   
     4    2    3 ar  
     5    2   38 1   
     6    3    4 ar  
     7    3   39 1   
     8    4    5 ar  
     9    4   40 1   
    10    5    6 ar  
    11    5   41 1   
    12    6    7 1   
    13    7    8 1   
    14    7   42 1   
    15    8    9 ar  
    16    8   23 ar  
    17    9   10 ar  
    18   10   11 1   
    19   10   21 ar  
    20   11   12 2   
    21   11   13 2   
    22   11   14 1   
    23   14   15 ar  
    24   14   20 ar  
    25   15   16 ar  
    26   15   43 1   
    27   16   17 ar  
    28   16   44 1   
    29   17   18 1   
    30   17   19 ar  
    31   18   45 1   
    32   18   46 1   
    33   19   20 ar  
    34   20   47 1   
    35   21   22 ar  
    36   21   48 1   
    37   22   23 ar  
    38   22   49 1   
    39   23   24 1   
    40   24   25 ar  
    41   24   27 ar  
    42   25   26 ar  
    43   25   50 1   
    44   26   29 ar  
    45   26   51 1   
    46   27   28 ar  
    47   28   29 ar  
    48   28   52 1   
    49   29   30 1   
    50   30   31 1   
    51   30   35 1   
    52   30   36 1   
    53   31   32 1   
    54   31   33 1   
    55   31   34 1   
    56   35   53 1   
    57   35   54 1   
    58   35   55 1   
    59   36   56 1   
@<TRIPOS>SUBSTRUCTURE
     1 2UY         1 TEMP              0 ****  ****    0 ROOT
