@<TRIPOS>MOLECULE
2UY
   58    61     1     0     0
SMALL
bcc


@<TRIPOS>ATOM
      1 C18         0.2220   -1.2000    1.0730 ca        1 2UY     -0.094000
      2 C19         1.6010   -1.1350    1.2700 ca        1 2UY     -0.108500
      3 C20         2.1950    0.0360    1.7410 ca        1 2UY     -0.076000
      4 C21         1.4080    1.1530    2.0300 ca        1 2UY     -0.108500
      5 C22         0.0290    1.1130    1.8460 ca        1 2UY     -0.094000
      6 C17        -0.5590   -0.0660    1.3520 ca        1 2UY     -0.046400
      7 N3         -1.9990   -0.0860    1.0710 n4        1 2UY     -0.603100
      8 C6         -2.8520   -0.8440    2.0200 ca        1 2UY      0.464200
      9 N2         -2.2330   -1.6550    2.9090 nb        1 2UY     -0.561000
     10 C10        -2.9900   -2.4370    3.7050 ca        1 2UY      0.150200
     11 S1         -2.2040   -3.6410    4.6820 sy        1 2UY      1.356200
     12 O2         -3.1930   -4.5470    5.0430 o         1 2UY     -0.596800
     13 O3         -1.0220   -4.0450    4.0890 o         1 2UY     -0.596800
     14 C12        -1.8120   -2.7500    6.0900 ca        1 2UY     -0.429800
     15 C16        -0.5700   -2.1410    6.2570 ca        1 2UY      0.050000
     16 C15        -0.2250   -1.5620    7.4910 ca        1 2UY     -0.222300
     17 C14        -1.1800   -1.6310    8.5200 ca        1 2UY      0.503200
     18 N5         -0.8580   -1.0940    9.8630 n4        1 2UY     -0.827300
     19 N4         -2.4160   -2.1960    8.3810 nb        1 2UY     -0.654000
     20 C13        -2.7040   -2.7390    7.1940 ca        1 2UY      0.535200
     21 C9         -4.4000   -2.3990    3.6650 ca        1 2UY     -0.107300
     22 C8         -5.0340   -1.5320    2.7770 ca        1 2UY     -0.087000
     23 C7         -4.2740   -0.7210    1.9190 cp        1 2UY     -0.132800
     24 C4         -4.9750    0.1510    0.9630 cp        1 2UY      0.377800
     25 C3         -6.2110    0.7190    1.3310 ca        1 2UY     -0.195300
     26 C2         -6.9350    1.4520    0.3810 ca        1 2UY     -0.038000
     27 N1         -4.4410    0.3310   -0.2810 nb        1 2UY     -0.723000
     28 C5         -5.1460    1.0250   -1.1790 ca        1 2UY      0.435200
     29 C1         -6.4150    1.5990   -0.9050 ca        1 2UY     -0.153600
     30 C11        -7.1600    2.3440   -1.9760 c3        1 2UY      0.179100
     31 C24        -7.4960    1.3710   -3.1950 c3        1 2UY      0.595900
     32 F2         -8.3770    1.9490   -4.0710 f         1 2UY     -0.223300
     33 F3         -6.4030    1.0240   -3.9450 f         1 2UY     -0.223300
     34 F1         -8.0730    0.1870   -2.8290 f         1 2UY     -0.223300
     35 C23        -6.3630    3.5290   -2.5060 c3        1 2UY     -0.138100
     36 O1         -8.3950    2.7630   -1.4240 oh        1 2UY     -0.578800
     37 H1         -0.2310   -2.1350    0.7040 ha        1 2UY      0.159000
     38 H2          2.2210   -2.0190    1.0410 ha        1 2UY      0.173000
     39 H3          3.2890    0.0830    1.8770 ha        1 2UY      0.172000
     40 H4          1.8800    2.0810    2.3960 ha        1 2UY      0.173000
     41 H5         -0.5740    2.0080    2.0720 ha        1 2UY      0.159000
     42 H6         -2.3460    0.8840    1.0460 hn        1 2UY      0.480800
     43 H7          0.1690   -2.1380    5.4310 ha        1 2UY      0.200000
     44 H8          0.7650   -1.0970    7.6230 ha        1 2UY      0.183000
     45 H9          0.0090   -0.5470    9.8150 hn        1 2UY      0.482800
     46 H10        -0.7360   -1.8770   10.5230 hn        1 2UY      0.482800
     47 H11        -3.7040   -3.2290    7.1280 h4        1 2UY      0.090100
     48 H12        -4.9940   -3.0790    4.3060 ha        1 2UY      0.201000
     49 H13        -6.1380   -1.5090    2.7240 ha        1 2UY      0.191000
     50 H14        -6.6140    0.5960    2.3470 ha        1 2UY      0.160000
     51 H15        -7.9130    1.8950    0.6430 ha        1 2UY      0.197000
     52 H16        -4.6910    1.1170   -2.1870 h4        1 2UY      0.060100
     53 H17        -5.3760    3.1900   -2.9020 hc        1 2UY      0.074033
     54 H18        -6.9290    4.0220   -3.3360 hc        1 2UY      0.074033
     55 H19        -6.2040    4.2720   -1.6890 hc        1 2UY      0.074033
     56 H20        -8.8480    3.2980   -2.0940 ho        1 2UY      0.447000
     57 H32        -2.1390   -0.5140    0.1380 hn        1 2UY      0.480800
     58 H53        -1.6260   -0.4960   10.2030 hn        1 2UY      0.482800
@<TRIPOS>BOND
     1    1    2 ar  
     2    1    6 ar  
     3    1   37 1   
     4    2    3 ar  
     5    2   38 1   
     6    3    4 ar  
     7    3   39 1   
     8    4    5 ar  
     9    4   40 1   
    10    5    6 ar  
    11    5   41 1   
    12    6    7 1   
    13    7    8 1   
    14    7   42 1   
    15    7   57 1   
    16    8    9 ar  
    17    8   23 ar  
    18    9   10 ar  
    19   10   11 1   
    20   10   21 ar  
    21   11   12 2   
    22   11   13 2   
    23   11   14 1   
    24   14   15 ar  
    25   14   20 ar  
    26   15   16 ar  
    27   15   43 1   
    28   16   17 ar  
    29   16   44 1   
    30   17   18 1   
    31   17   19 ar  
    32   18   45 1   
    33   18   46 1   
    34   18   58 1   
    35   19   20 ar  
    36   20   47 1   
    37   21   22 ar  
    38   21   48 1   
    39   22   23 ar  
    40   22   49 1   
    41   23   24 1   
    42   24   25 ar  
    43   24   27 ar  
    44   25   26 ar  
    45   25   50 1   
    46   26   29 ar  
    47   26   51 1   
    48   27   28 ar  
    49   28   29 ar  
    50   28   52 1   
    51   29   30 1   
    52   30   31 1   
    53   30   35 1   
    54   30   36 1   
    55   31   32 1   
    56   31   33 1   
    57   31   34 1   
    58   35   53 1   
    59   35   54 1   
    60   35   55 1   
    61   36   56 1   
@<TRIPOS>SUBSTRUCTURE
     1 2UY         1 TEMP              0 ****  ****    0 ROOT
