@<TRIPOS>MOLECULE
2UZ
   23    23     1     0     0
SMALL
bcc


@<TRIPOS>ATOM
      1 O          -0.0770    0.5660   -0.1190 o         1 2UZ     -0.770300
      2 C           1.0840    0.1070    0.0530 c         1 2UZ      0.931600
      3 OXT         1.5940   -0.3910    1.0700 o         1 2UZ     -0.770300
      4 CA          1.9660    0.0400   -1.2860 c3        1 2UZ     -0.039500
      5 N           1.0230   -0.4440   -2.3550 nz        1 2UZ     -0.829600
      6 CB          2.5490    1.4090   -1.6630 c3        1 2UZ      0.263600
      7 NAH         3.0300    1.4610   -3.0220 nu        1 2UZ     -0.725000
      8 SAI         3.7750    1.8810   -0.4140 ss        1 2UZ     -0.359200
      9 CAG         4.1860    3.4760   -1.0990 c3        1 2UZ      0.059900
     10 CAF         4.3360    3.4800   -2.5620 c2        1 2UZ     -0.271200
     11 CAL         3.8560    2.5400   -3.4040 ce        1 2UZ      0.011800
     12 CAJ         4.2410    2.5480   -4.9050 c         1 2UZ      0.926800
     13 OAD         4.4480    3.6670   -5.4380 o         1 2UZ     -0.818800
     14 OAB         4.3380    1.4270   -5.4770 o         1 2UZ     -0.818800
     15 H2          2.7820   -0.7220   -1.1600 hx        1 2UZ      0.095700
     16 H3          0.8310   -1.4310   -2.2050 hn        1 2UZ      0.447467
     17 H4          1.3780   -0.2920   -3.2990 hn        1 2UZ      0.447467
     18 H6          1.7280    2.1820   -1.5780 h2        1 2UZ      0.098700
     19 H7          5.1510    3.7570   -0.6070 h1        1 2UZ      0.061200
     20 H8          3.4070    4.2150   -0.7830 h1        1 2UZ      0.061200
     21 H9          4.9040    4.3190   -2.9950 ha        1 2UZ      0.158000
     22 H10         3.4590    0.6070   -3.3380 hn        1 2UZ      0.392800
     23 HN3         0.1470    0.0930   -2.2160 hn        1 2UZ      0.447467
@<TRIPOS>BOND
     1    1    2 1   
     2    2    3 1   
     3    2    4 1   
     4    4    5 1   
     5    4    6 1   
     6    4   15 1   
     7    5   16 1   
     8    5   17 1   
     9    5   23 1   
    10    6    7 1   
    11    6    8 1   
    12    6   18 1   
    13    7   11 1   
    14    7   22 1   
    15    8    9 1   
    16    9   10 1   
    17    9   19 1   
    18    9   20 1   
    19   10   11 2   
    20   10   21 1   
    21   11   12 1   
    22   12   13 1   
    23   12   14 1   
@<TRIPOS>SUBSTRUCTURE
     1 2UZ         1 TEMP              0 ****  ****    0 ROOT
