@<TRIPOS>MOLECULE
2UZ
   23    23     1     0     0
SMALL
bcc


@<TRIPOS>ATOM
      1 O          -0.0640    0.5350   -0.1190 o         1 2UZ     -0.770300
      2 C           1.1040    0.0930    0.0550 c         1 2UZ      0.931600
      3 OXT         1.6200   -0.3960    1.0740 o         1 2UZ     -0.770300
      4 CA          1.9880    0.0360   -1.2830 c3        1 2UZ     -0.039500
      5 N           1.0520   -0.4630   -2.3530 n4        1 2UZ     -0.830600
      6 CB          2.5510    1.4130   -1.6620 c3        1 2UZ      0.263600
      7 NAH         3.0330    1.4690   -3.0200 nh        1 2UZ     -0.725000
      8 SAI         3.7700    1.9050   -0.4130 ss        1 2UZ     -0.359200
      9 CAG         4.1590    3.5040   -1.1000 c3        1 2UZ      0.059900
     10 CAF         4.3100    3.5070   -2.5630 c2        1 2UZ     -0.271200
     11 CAL         3.8440    2.5590   -3.4030 ce        1 2UZ      0.011800
     12 CAJ         4.2310    2.5710   -4.9040 c         1 2UZ      0.926800
     13 OAD         4.4230    3.6910   -5.4380 o         1 2UZ     -0.818800
     14 OAB         4.3450    1.4490   -5.4740 o         1 2UZ     -0.818800
     15 H2          2.8140   -0.7140   -1.1550 hx        1 2UZ      0.095700
     16 H3          0.1690    0.0610   -2.2140 hn        1 2UZ      0.447467
     17 H4          0.8750   -1.4520   -2.2020 hn        1 2UZ      0.447467
     18 H6          1.7200    2.1740   -1.5790 h2        1 2UZ      0.098700
     19 H7          3.3690    4.2320   -0.7860 h1        1 2UZ      0.061200
     20 H8          5.1190    3.8000   -0.6070 h1        1 2UZ      0.061200
     21 H9          4.8670    4.3540   -2.9960 ha        1 2UZ      0.158000
     22 H10         3.4750    0.6210   -3.3340 hn        1 2UZ      0.392800
     23 HN3         1.4060   -0.3060   -3.2960 hn        1 2UZ      0.447467
@<TRIPOS>BOND
     1    1    2 1   
     2    2    3 1   
     3    2    4 1   
     4    4    5 1   
     5    4    6 1   
     6    4   15 1   
     7    5   16 1   
     8    5   17 1   
     9    5   23 1   
    10    6    7 1   
    11    6    8 1   
    12    6   18 1   
    13    7   11 1   
    14    7   22 1   
    15    8    9 1   
    16    9   10 1   
    17    9   19 1   
    18    9   20 1   
    19   10   11 2   
    20   10   21 1   
    21   11   12 1   
    22   12   13 1   
    23   12   14 1   
@<TRIPOS>SUBSTRUCTURE
     1 2UZ         1 TEMP              0 ****  ****    0 ROOT
