@<TRIPOS>MOLECULE
2UZ
   23    23     1     0     0
SMALL
bcc


@<TRIPOS>ATOM
      1 O          -0.0730    0.5690   -0.1130 o         1 2UZ     -0.770300
      2 C           1.0900    0.1180    0.0650 c         1 2UZ      0.931600
      3 OXT         1.6020   -0.3660    1.0880 o         1 2UZ     -0.770300
      4 CA          1.9740    0.0430   -1.2730 c3        1 2UZ     -0.039500
      5 N           1.0340   -0.4570   -2.3380 n4        1 2UZ     -0.829600
      6 CB          2.5490    1.4120   -1.6630 c3        1 2UZ      0.263600
      7 NAH         3.0310    1.4540   -3.0210 nh        1 2UZ     -0.725000
      8 SAI         3.7710    1.9040   -0.4170 ss        1 2UZ     -0.359200
      9 CAG         4.1730    3.4940   -1.1170 c3        1 2UZ      0.059900
     10 CAF         4.3250    3.4840   -2.5800 c2        1 2UZ     -0.271200
     11 CAL         3.8510    2.5340   -3.4130 ce        1 2UZ      0.011800
     12 CAJ         4.2380    2.5300   -4.9140 c         1 2UZ      0.926800
     13 OAD         4.4380    3.6440   -5.4570 o         1 2UZ     -0.818800
     14 OAB         4.3420    1.4030   -5.4750 o         1 2UZ     -0.818800
     15 H2          2.7940   -0.7120   -1.1380 hx        1 2UZ      0.095700
     16 H3          0.1560    0.0760   -2.2040 hn        1 2UZ      0.447467
     17 H4          0.8480   -1.4430   -2.1780 hn        1 2UZ      0.447467
     18 H6          1.7230    2.1810   -1.5850 h2        1 2UZ      0.098700
     19 H7          5.1360    3.7860   -0.6270 h1        1 2UZ      0.061200
     20 H8          3.3890    4.2310   -0.8090 h1        1 2UZ      0.061200
     21 H9          4.8890    4.3230   -3.0210 ha        1 2UZ      0.158000
     22 H10         3.4660    0.5990   -3.3290 hn        1 2UZ      0.392800
     23 HN3         1.3890   -0.3110   -3.2820 hn        1 2UZ      0.447467
@<TRIPOS>BOND
     1    1    2 1   
     2    2    3 1   
     3    2    4 1   
     4    4    5 1   
     5    4    6 1   
     6    4   15 1   
     7    5   16 1   
     8    5   17 1   
     9    5   23 1   
    10    6    7 1   
    11    6    8 1   
    12    6   18 1   
    13    7   11 1   
    14    7   22 1   
    15    8    9 1   
    16    9   10 1   
    17    9   19 1   
    18    9   20 1   
    19   10   11 2   
    20   10   21 1   
    21   11   12 1   
    22   12   13 1   
    23   12   14 1   
@<TRIPOS>SUBSTRUCTURE
     1 2UZ         1 TEMP              0 ****  ****    0 ROOT
