@<TRIPOS>MOLECULE
2V0
   26    26     1     0     0
SMALL
bcc


@<TRIPOS>ATOM
      1 O          -0.1650    0.6680   -0.2340 o         1 2V0     -0.770300
      2 C           0.9810    0.2030    0.0110 c         1 2V0      0.930600
      3 OXT         1.4370   -0.2540    1.0720 o         1 2V0     -0.770300
      4 CA          1.9220    0.0670   -1.2810 c3        1 2V0     -0.037500
      5 N           1.0200   -0.4300   -2.3800 n4        1 2V0     -0.830600
      6 CB          2.5590    1.4070   -1.6770 c3        1 2V0      0.257600
      7 NAH         3.1130    1.3860   -3.0090 nh        1 2V0     -0.727000
      8 SAI         3.7460    1.8960   -0.4030 ss        1 2V0     -0.351200
      9 CAG         4.1950    3.4540   -1.1350 c3        1 2V0      0.054900
     10 CAJ         4.3950    3.4370   -2.6040 c2        1 2V0     -0.212400
     11 CAA         5.1790    4.5900   -3.1090 c3        1 2V0     -0.037900
     12 CAM         3.9290    2.4650   -3.4240 ce        1 2V0      0.024800
     13 CAK         4.2910    2.3500   -4.9300 c         1 2V0      0.928800
     14 OAE         4.7460    1.2330   -5.3030 o         1 2V0     -0.816800
     15 OAC         4.0900    3.3440   -5.6710 o         1 2V0     -0.816800
     16 H2          2.7100   -0.7100   -1.0890 hx        1 2V0      0.095700
     17 H3          0.8150   -1.4120   -2.2240 hn        1 2V0      0.447467
     18 H4          0.1440    0.1160   -2.2870 hn        1 2V0      0.447467
     19 H6          1.7560    2.2020   -1.6640 h2        1 2V0      0.100700
     20 H7          3.5930    0.5280   -3.2300 hn        1 2V0      0.393800
     21 H9          3.4150    4.2110   -0.8690 h1        1 2V0      0.062200
     22 H10         5.1480    3.7440   -0.6230 h1        1 2V0      0.062200
     23 H12         5.1530    4.6360   -4.2280 hc        1 2V0      0.038033
     24 H13         6.2430    4.5060   -2.7750 hc        1 2V0      0.038033
     25 H14         4.7610    5.5450   -2.7020 hc        1 2V0      0.038033
     26 HN3         1.4180   -0.2940   -3.3100 hn        1 2V0      0.447467
@<TRIPOS>BOND
     1    1    2 1   
     2    2    3 1   
     3    2    4 1   
     4    4    5 1   
     5    4    6 1   
     6    4   16 1   
     7    5   17 1   
     8    5   18 1   
     9    5   26 1   
    10    6    7 1   
    11    6    8 1   
    12    6   19 1   
    13    7   12 1   
    14    7   20 1   
    15    8    9 1   
    16    9   10 1   
    17    9   21 1   
    18    9   22 1   
    19   10   11 1   
    20   10   12 2   
    21   11   23 1   
    22   11   24 1   
    23   11   25 1   
    24   12   13 1   
    25   13   14 1   
    26   13   15 1   
@<TRIPOS>SUBSTRUCTURE
     1 2V0         1 TEMP              0 ****  ****    0 ROOT
