@<TRIPOS>MOLECULE
2V0
   26    26     1     0     0
SMALL
bcc


@<TRIPOS>ATOM
      1 O          -0.0750    0.5140   -0.1940 o         1 2V0     -0.770300
      2 C           1.0900    0.0840    0.0170 c         1 2V0      0.930600
      3 OXT         1.5840   -0.3800    1.0590 o         1 2V0     -0.770300
      4 CA          2.0090    0.0090   -1.2960 c3        1 2V0     -0.037500
      5 N           1.1030   -0.4950   -2.3880 n4        1 2V0     -0.830600
      6 CB          2.5910    1.3780   -1.6740 c3        1 2V0      0.257600
      7 NAH         3.1170    1.4070   -3.0170 nh        1 2V0     -0.727000
      8 SAI         3.7870    1.8820   -0.4140 ss        1 2V0     -0.351200
      9 CAG         4.1650    3.4700   -1.1190 c3        1 2V0      0.054900
     10 CAJ         4.3350    3.4920   -2.5920 c2        1 2V0     -0.212400
     11 CAA         5.0670    4.6830   -3.0860 c3        1 2V0     -0.037900
     12 CAM         3.8860    2.5220   -3.4240 ce        1 2V0      0.024800
     13 CAK         4.2200    2.4540   -4.9390 c         1 2V0      0.928800
     14 OAE         4.7060    1.3630   -5.3470 o         1 2V0     -0.816800
     15 OAC         3.9690    3.4560   -5.6530 o         1 2V0     -0.816800
     16 H2          2.8270   -0.7440   -1.1370 hx        1 2V0      0.095700
     17 H3          1.4760   -0.3260   -3.3210 hn        1 2V0      0.447467
     18 H4          0.9340   -1.4870   -2.2480 hn        1 2V0      0.447467
     19 H6          1.7620    2.1450   -1.6270 h2        1 2V0      0.100700
     20 H7          3.6230    0.5710   -3.2670 hn        1 2V0      0.393800
     21 H9          3.3660    4.1930   -0.8190 h1        1 2V0      0.062200
     22 H10         5.1190    3.7810   -0.6200 h1        1 2V0      0.062200
     23 H12         6.1410    4.6300   -2.7760 hc        1 2V0      0.038033
     24 H13         5.0150    4.7530   -4.2030 hc        1 2V0      0.038033
     25 H14         4.6250    5.6140   -2.6490 hc        1 2V0      0.038033
     26 HN3         0.2100    0.0180   -2.2660 hn        1 2V0      0.447467
@<TRIPOS>BOND
     1    1    2 1   
     2    2    3 1   
     3    2    4 1   
     4    4    5 1   
     5    4    6 1   
     6    4   16 1   
     7    5   17 1   
     8    5   18 1   
     9    5   26 1   
    10    6    7 1   
    11    6    8 1   
    12    6   19 1   
    13    7   12 1   
    14    7   20 1   
    15    8    9 1   
    16    9   10 1   
    17    9   21 1   
    18    9   22 1   
    19   10   11 1   
    20   10   12 2   
    21   11   23 1   
    22   11   24 1   
    23   11   25 1   
    24   12   13 1   
    25   13   14 1   
    26   13   15 1   
@<TRIPOS>SUBSTRUCTURE
     1 2V0         1 TEMP              0 ****  ****    0 ROOT
