@<TRIPOS>MOLECULE
2V0
   26    26     1     0     0
SMALL
bcc


@<TRIPOS>ATOM
      1 O          -0.1780    0.6630   -0.2580 o         1 2V0     -0.770300
      2 C           0.9710    0.2220    0.0150 c         1 2V0      0.930600
      3 OXT         1.4170   -0.2050    1.0930 o         1 2V0     -0.770300
      4 CA          1.9340    0.0710   -1.2590 c3        1 2V0     -0.037500
      5 N           1.0580   -0.4640   -2.3610 nz        1 2V0     -0.830600
      6 CB          2.5580    1.4110   -1.6750 c3        1 2V0      0.257600
      7 NAH         3.1320    1.3700   -2.9970 nu        1 2V0     -0.727000
      8 SAI         3.7170    1.9470   -0.3940 ss        1 2V0     -0.351200
      9 CAG         4.1530    3.4950   -1.1530 c3        1 2V0      0.054900
     10 CAJ         4.3760    3.4490   -2.6190 c2        1 2V0     -0.212400
     11 CAA         5.1500    4.6030   -3.1370 c3        1 2V0     -0.037900
     12 CAM         3.9380    2.4520   -3.4240 ce        1 2V0      0.024800
     13 CAK         4.3250    2.3110   -4.9210 c         1 2V0      0.928800
     14 OAE         4.8030    1.1930   -5.2630 o         1 2V0     -0.816800
     15 OAC         4.1200    3.2840   -5.6870 o         1 2V0     -0.816800
     16 H2          2.7310   -0.6890   -1.0370 hx        1 2V0      0.095700
     17 H3          0.1720    0.0710   -2.2940 hn        1 2V0      0.447467
     18 H4          0.8650   -1.4460   -2.1850 hn        1 2V0      0.447467
     19 H6          1.7420    2.1940   -1.6920 h2        1 2V0      0.100700
     20 H7          3.6300    0.5150   -3.1920 hn        1 2V0      0.393800
     21 H9          5.0940    3.8110   -0.6330 h1        1 2V0      0.062200
     22 H10         3.3580    4.2460   -0.9160 h1        1 2V0      0.062200
     23 H12         4.7120    5.5600   -2.7580 hc        1 2V0      0.038033
     24 H13         6.2100    4.5430   -2.7860 hc        1 2V0      0.038033
     25 H14         5.1390    4.6250   -4.2570 hc        1 2V0      0.038033
     26 HN3         1.4680   -0.3430   -3.2860 hn        1 2V0      0.447467
@<TRIPOS>BOND
     1    1    2 1   
     2    2    3 1   
     3    2    4 1   
     4    4    5 1   
     5    4    6 1   
     6    4   16 1   
     7    5   17 1   
     8    5   18 1   
     9    5   26 1   
    10    6    7 1   
    11    6    8 1   
    12    6   19 1   
    13    7   12 1   
    14    7   20 1   
    15    8    9 1   
    16    9   10 1   
    17    9   21 1   
    18    9   22 1   
    19   10   11 1   
    20   10   12 2   
    21   11   23 1   
    22   11   24 1   
    23   11   25 1   
    24   12   13 1   
    25   13   14 1   
    26   13   15 1   
@<TRIPOS>SUBSTRUCTURE
     1 2V0         1 TEMP              0 ****  ****    0 ROOT
