@<TRIPOS>MOLECULE
2V1
   73    78     1     0     0
SMALL
bcc


@<TRIPOS>ATOM
      1 C1         -0.3120   -0.1620    0.3650 cc        1 2V1      0.511200
      2 N2          0.9750   -0.3590    0.1120 nd        1 2V1     -0.611000
      3 C3          1.8930   -0.1400    1.1210 cd        1 2V1      0.393800
      4 C4          1.5140    0.2570    2.4110 cc        1 2V1     -0.077600
      5 C5         -0.8110    0.2350    1.6600 cc        1 2V1     -0.180600
      6 N6          0.1850    0.4330    2.6950 na        1 2V1      0.030700
      7 C7         -0.5260    0.8090    3.8320 cc        1 2V1     -0.153100
      8 C8         -1.8960    0.8240    3.4590 cd        1 2V1      0.066600
      9 N9         -2.0620    0.4730    2.1290 nd        1 2V1     -0.249600
     10 N10        -1.3110   -0.3370   -0.7220 n4        1 2V1     -0.607100
     11 C11        -0.6430   -0.3940   -2.0330 ca        1 2V1     -0.020400
     12 C12        -0.1770   -1.6300   -2.5140 ca        1 2V1     -0.086000
     13 C13         0.7060   -1.6450   -3.5930 ca        1 2V1     -0.085500
     14 C14         1.1190   -0.4430   -4.1760 ca        1 2V1     -0.093600
     15 C15         0.5430    0.7690   -3.7810 ca        1 2V1     -0.085500
     16 C16        -0.3410    0.8040   -2.7040 ca        1 2V1     -0.086000
     17 C17         3.3070   -0.3360    0.7550 ca        1 2V1     -0.125500
     18 C18         2.2930   -0.4370   -5.1100 c         1 2V1      0.691700
     19 O19         3.4450   -0.3080   -4.6080 o         1 2V1     -0.722100
     20 N20         2.1030   -0.5570   -6.4520 n         1 2V1     -0.419800
     21 C21         3.2250   -0.5360   -7.3780 c3        1 2V1      0.044500
     22 C22         3.1030   -1.5990   -8.4810 c3        1 2V1      0.109900
     23 O23         1.8270   -1.5470   -9.1050 os        1 2V1     -0.381600
     24 C24         0.7680   -1.7470   -8.1820 c3        1 2V1      0.109900
     25 C25         0.7940   -0.6900   -7.0650 c3        1 2V1      0.044500
     26 C26         3.7180   -0.0360   -0.5520 ca        1 2V1     -0.062000
     27 C27         5.0380   -0.3070   -0.9470 ca        1 2V1     -0.032400
     28 C28         5.9640   -0.8300   -0.0260 ca        1 2V1     -0.081000
     29 C29         5.5480   -1.0900    1.2780 ca        1 2V1     -0.095000
     30 C30         4.2290   -0.8580    1.6710 ca        1 2V1     -0.068000
     31 N31         5.4290   -0.0590   -2.3350 n4        1 2V1     -0.560200
     32 C32         6.1160    1.2880   -2.5650 c         1 2V1      0.574700
     33 C33         7.0460    1.2840   -3.7040 ca        1 2V1     -0.163600
     34 O34         5.8320    2.1940   -1.8020 o         1 2V1     -0.396100
     35 C35         6.6850    0.7060   -4.9290 ca        1 2V1     -0.101500
     36 C36         7.5950    0.7320   -5.9830 ca        1 2V1     -0.026000
     37 C37         8.8570    1.3160   -5.8310 ca        1 2V1     -0.275500
     38 C38         9.1960    1.8980   -4.6080 ca        1 2V1     -0.026000
     39 C39         8.2950    1.8960   -3.5420 ca        1 2V1     -0.101500
     40 S40        10.0010    1.2370   -7.1250 sy        1 2V1      1.386300
     41 C41         9.8520    2.7960   -7.7170 c3        1 2V1     -0.387300
     42 O42        11.2560    1.0430   -6.5560 o         1 2V1     -0.629800
     43 O43         9.5040    0.3110   -8.0440 o         1 2V1     -0.629800
     44 H1          2.2430    0.4460    3.2220 h4        1 2V1      0.210000
     45 H2         -0.0450    1.0300    4.7880 h4        1 2V1      0.225000
     46 H3         -2.7540    1.0720    4.0960 h4        1 2V1      0.229000
     47 H4         -1.8320   -1.2090   -0.5450 hn        1 2V1      0.484300
     48 H5         -0.4630   -2.5830   -2.0360 ha        1 2V1      0.170000
     49 H6          1.0990   -2.6080   -3.9590 ha        1 2V1      0.178500
     50 H7          0.8060    1.7080   -4.2980 ha        1 2V1      0.178500
     51 H8         -0.7630    1.7710   -2.3810 ha        1 2V1      0.170000
     52 H9          3.2580    0.4850   -7.8560 h1        1 2V1      0.071200
     53 H10         4.1840   -0.7020   -6.8110 h1        1 2V1      0.071200
     54 H11         3.8290   -1.3740   -9.3070 h1        1 2V1      0.075950
     55 H12         3.2880   -2.6260   -8.0700 h1        1 2V1      0.075950
     56 H13        -0.1660   -1.6290   -8.7940 h1        1 2V1      0.075950
     57 H14         0.8220   -2.7820   -7.7520 h1        1 2V1      0.075950
     58 H15         0.5170    0.3100   -7.5100 h1        1 2V1      0.071200
     59 H16         0.0270   -0.9650   -6.2900 h1        1 2V1      0.071200
     60 H17         3.0060    0.4050   -1.2700 ha        1 2V1      0.162000
     61 H18         7.0080   -1.0420   -0.3150 ha        1 2V1      0.168000
     62 H19         6.2720   -1.4970    2.0060 ha        1 2V1      0.183000
     63 H20         3.9180   -1.1030    2.7000 ha        1 2V1      0.163000
     64 H21         4.5850   -0.0890   -2.9370 hn        1 2V1      0.482300
     65 H22         5.6880    0.2580   -5.0820 ha        1 2V1      0.165000
     66 H23         7.3270    0.2670   -6.9520 ha        1 2V1      0.184000
     67 H24        10.1970    2.3490   -4.4720 ha        1 2V1      0.184000
     68 H25         8.5670    2.3700   -2.5840 ha        1 2V1      0.165000
     69 H26         8.8550    3.0150   -8.1770 h1        1 2V1      0.133367
     70 H27        10.6030    2.9970   -8.5300 h1        1 2V1      0.133367
     71 H28        10.0280    3.5950   -6.9530 h1        1 2V1      0.133367
     72 H102       -1.9660    0.4590   -0.6850 hn        1 2V1      0.484300
     73 H312        6.0660   -0.8030   -2.6440 hn        1 2V1      0.482300
@<TRIPOS>BOND
     1    1    2 2   
     2    1    5 1   
     3    1   10 1   
     4    2    3 1   
     5    3    4 2   
     6    3   17 1   
     7    4    6 1   
     8    4   44 1   
     9    5    6 1   
    10    5    9 2   
    11    6    7 1   
    12    7    8 2   
    13    7   45 1   
    14    8    9 1   
    15    8   46 1   
    16   10   11 1   
    17   10   47 1   
    18   10   72 1   
    19   11   12 ar  
    20   11   16 ar  
    21   12   13 ar  
    22   12   48 1   
    23   13   14 ar  
    24   13   49 1   
    25   14   15 ar  
    26   14   18 1   
    27   15   16 ar  
    28   15   50 1   
    29   16   51 1   
    30   17   26 ar  
    31   17   30 ar  
    32   18   19 2   
    33   18   20 1   
    34   20   21 1   
    35   20   25 1   
    36   21   22 1   
    37   21   52 1   
    38   21   53 1   
    39   22   23 1   
    40   22   54 1   
    41   22   55 1   
    42   23   24 1   
    43   24   25 1   
    44   24   56 1   
    45   24   57 1   
    46   25   58 1   
    47   25   59 1   
    48   26   27 ar  
    49   26   60 1   
    50   27   28 ar  
    51   27   31 1   
    52   28   29 ar  
    53   28   61 1   
    54   29   30 ar  
    55   29   62 1   
    56   30   63 1   
    57   31   32 1   
    58   31   64 1   
    59   31   73 1   
    60   32   33 1   
    61   32   34 2   
    62   33   35 ar  
    63   33   39 ar  
    64   35   36 ar  
    65   35   65 1   
    66   36   37 ar  
    67   36   66 1   
    68   37   38 ar  
    69   37   40 1   
    70   38   39 ar  
    71   38   67 1   
    72   39   68 1   
    73   40   41 1   
    74   40   42 2   
    75   40   43 2   
    76   41   69 1   
    77   41   70 1   
    78   41   71 1   
@<TRIPOS>SUBSTRUCTURE
     1 2V1         1 TEMP              0 ****  ****    0 ROOT
