@<TRIPOS>MOLECULE
2V1
   71    76     1     0     0
SMALL
bcc


@<TRIPOS>ATOM
      1 C1          0.1860    0.0970   -0.0730 cc        1 2V1      0.717200
      2 N2          1.5080   -0.1150   -0.0420 nd        1 2V1     -0.728000
      3 C3          2.1780    0.0090    1.1640 cd        1 2V1      0.467800
      4 C4          1.5560    0.3600    2.3590 cc        1 2V1     -0.226600
      5 C5         -0.5500    0.4740    1.1440 cc        1 2V1     -0.197600
      6 N6          0.1950    0.5880    2.3580 na        1 2V1      0.052700
      7 C7         -0.7070    0.9570    3.3450 cc        1 2V1     -0.207100
      8 C8         -1.9690    1.0540    2.7010 cd        1 2V1      0.003600
      9 N9         -1.8690    0.7590    1.3570 nd        1 2V1     -0.268600
     10 N10        -0.5760   -0.0620   -1.2340 nh        1 2V1     -0.719300
     11 C11         0.0040   -0.1570   -2.5170 ca        1 2V1      0.156600
     12 C12         1.0130   -1.1010   -2.8060 ca        1 2V1     -0.151000
     13 C13         1.5460   -1.1820   -4.0880 ca        1 2V1     -0.081000
     14 C14         1.0720   -0.3550   -5.1110 ca        1 2V1     -0.154600
     15 C15         0.0520    0.5610   -4.8420 ca        1 2V1     -0.081000
     16 C16        -0.4780    0.6670   -3.5620 ca        1 2V1     -0.151000
     17 C17         3.6310   -0.2390    1.1640 ca        1 2V1     -0.114500
     18 C18         1.7320   -0.4160   -6.4460 c         1 2V1      0.672700
     19 O19         2.9690   -0.2810   -6.5440 o         1 2V1     -0.604100
     20 N20         0.9450   -0.5550   -7.5860 n         1 2V1     -0.458800
     21 C21         1.5730   -0.6490   -8.8900 c3        1 2V1      0.048000
     22 C22         1.3760   -2.0140   -9.5640 c3        1 2V1      0.101900
     23 O23         0.0080   -2.4100   -9.5600 os        1 2V1     -0.410600
     24 C24        -0.5470   -2.4360   -8.2510 c3        1 2V1      0.101900
     25 C25        -0.4010   -1.0790   -7.5440 c3        1 2V1      0.048000
     26 C26         4.4050    0.1370    0.0640 ca        1 2V1     -0.142000
     27 C27         5.8000   -0.1080    0.0500 ca        1 2V1      0.062600
     28 C28         6.3950   -0.7190    1.1730 ca        1 2V1     -0.142000
     29 C29         5.6070   -1.0840    2.2620 ca        1 2V1     -0.109000
     30 C30         4.2340   -0.8580    2.2670 ca        1 2V1     -0.145000
     31 N31         6.5180    0.2570   -1.1010 n         1 2V1     -0.467100
     32 C32         7.8930    0.2430   -1.2750 c         1 2V1      0.672700
     33 C33         8.3750    0.6560   -2.6320 ca        1 2V1     -0.086600
     34 O34         8.6970   -0.0680   -0.3790 o         1 2V1     -0.574100
     35 C35         7.7790    0.1690   -3.7990 ca        1 2V1     -0.119000
     36 C36         8.2730    0.5650   -5.0400 ca        1 2V1     -0.025500
     37 C37         9.3520    1.4510   -5.1380 ca        1 2V1     -0.362500
     38 C38         9.9490    1.9140   -3.9590 ca        1 2V1     -0.025500
     39 C39         9.4710    1.5220   -2.7120 ca        1 2V1     -0.119000
     40 S40         9.9490    1.9150   -6.6410 sy        1 2V1      1.395300
     41 C41         8.8850    3.1830   -6.9880 c3        1 2V1     -0.361300
     42 O42        11.2450    2.4300   -6.4990 o         1 2V1     -0.653300
     43 O43         9.7540    0.8880   -7.5730 o         1 2V1     -0.653300
     44 H1          2.0880    0.4780    3.3150 h4        1 2V1      0.179000
     45 H2         -0.4150    1.1170    4.3800 h4        1 2V1      0.190000
     46 H3         -2.9230    1.3210    3.1580 h4        1 2V1      0.187000
     47 H4         -1.4790    0.3690   -1.2060 hn        1 2V1      0.455800
     48 H5          1.3950   -1.7750   -2.0240 ha        1 2V1      0.152000
     49 H6          2.3560   -1.8990   -4.3000 ha        1 2V1      0.147500
     50 H7         -0.3260    1.2160   -5.6440 ha        1 2V1      0.147500
     51 H8         -1.2740    1.4030   -3.3700 ha        1 2V1      0.152000
     52 H9          2.6760   -0.4420   -8.8010 h1        1 2V1      0.068950
     53 H10         1.1070    0.1450   -9.5400 h1        1 2V1      0.068950
     54 H11         1.6430   -1.9490  -10.6510 h1        1 2V1      0.057700
     55 H12         1.9950   -2.8020   -9.0610 h1        1 2V1      0.057700
     56 H13        -1.6330   -2.6690   -8.4120 h1        1 2V1      0.057700
     57 H14        -0.0630   -3.2520   -7.6530 h1        1 2V1      0.057700
     58 H15        -1.0680   -0.3320   -8.0640 h1        1 2V1      0.068950
     59 H16        -0.7530   -1.1900   -6.4820 h1        1 2V1      0.068950
     60 H17         3.9190    0.6190   -0.7990 ha        1 2V1      0.151000
     61 H18         7.4800   -0.9160    1.2010 ha        1 2V1      0.175000
     62 H19         6.0830   -1.5670    3.1290 ha        1 2V1      0.139000
     63 H20         3.6260   -1.1770    3.1260 ha        1 2V1      0.134000
     64 H21         5.9650    0.5750   -1.8680 hn        1 2V1      0.325500
     65 H22         6.9380   -0.5400   -3.7520 ha        1 2V1      0.157500
     66 H23         7.8150    0.1640   -5.9630 ha        1 2V1      0.163500
     67 H24        10.8240    2.5870   -4.0250 ha        1 2V1      0.163500
     68 H25         9.9560    1.8740   -1.7870 ha        1 2V1      0.157500
     69 H26         7.8120    2.8710   -6.9880 h1        1 2V1      0.116367
     70 H27         8.9690    4.0370   -6.2720 h1        1 2V1      0.116367
     71 H28         9.0840    3.6100   -8.0050 h1        1 2V1      0.116367
@<TRIPOS>BOND
     1    1    2 2   
     2    1    5 1   
     3    1   10 1   
     4    2    3 1   
     5    3    4 2   
     6    3   17 1   
     7    4    6 1   
     8    4   44 1   
     9    5    6 1   
    10    5    9 2   
    11    6    7 1   
    12    7    8 2   
    13    7   45 1   
    14    8    9 1   
    15    8   46 1   
    16   10   11 1   
    17   10   47 1   
    18   11   12 ar  
    19   11   16 ar  
    20   12   13 ar  
    21   12   48 1   
    22   13   14 ar  
    23   13   49 1   
    24   14   15 ar  
    25   14   18 1   
    26   15   16 ar  
    27   15   50 1   
    28   16   51 1   
    29   17   26 ar  
    30   17   30 ar  
    31   18   19 2   
    32   18   20 1   
    33   20   21 1   
    34   20   25 1   
    35   21   22 1   
    36   21   52 1   
    37   21   53 1   
    38   22   23 1   
    39   22   54 1   
    40   22   55 1   
    41   23   24 1   
    42   24   25 1   
    43   24   56 1   
    44   24   57 1   
    45   25   58 1   
    46   25   59 1   
    47   26   27 ar  
    48   26   60 1   
    49   27   28 ar  
    50   27   31 1   
    51   28   29 ar  
    52   28   61 1   
    53   29   30 ar  
    54   29   62 1   
    55   30   63 1   
    56   31   32 1   
    57   31   64 1   
    58   32   33 1   
    59   32   34 2   
    60   33   35 ar  
    61   33   39 ar  
    62   35   36 ar  
    63   35   65 1   
    64   36   37 ar  
    65   36   66 1   
    66   37   38 ar  
    67   37   40 1   
    68   38   39 ar  
    69   38   67 1   
    70   39   68 1   
    71   40   41 1   
    72   40   42 2   
    73   40   43 2   
    74   41   69 1   
    75   41   70 1   
    76   41   71 1   
@<TRIPOS>SUBSTRUCTURE
     1 2V1         1 TEMP              0 ****  ****    0 ROOT
