@<TRIPOS>MOLECULE
2V1
   71    76     1     0     0
SMALL
bcc


@<TRIPOS>ATOM
      1 C1          0.1880    0.1120   -0.0730 cc        1 2V1      0.717200
      2 N2          1.5090   -0.1100   -0.0430 nd        1 2V1     -0.728000
      3 C3          2.1800    0.0050    1.1620 cd        1 2V1      0.467800
      4 C4          1.5610    0.3560    2.3590 cc        1 2V1     -0.226600
      5 C5         -0.5440    0.4900    1.1460 cc        1 2V1     -0.197600
      6 N6          0.2020    0.5950    2.3590 na        1 2V1      0.052700
      7 C7         -0.6960    0.9670    3.3480 cc        1 2V1     -0.207100
      8 C8         -1.9580    1.0760    2.7060 cd        1 2V1      0.003600
      9 N9         -1.8610    0.7850    1.3610 nd        1 2V1     -0.268600
     10 N10        -0.5760   -0.0380   -1.2340 nu        1 2V1     -0.719300
     11 C11         0.0020   -0.1350   -2.5180 ca        1 2V1      0.156600
     12 C12         1.0040   -1.0850   -2.8100 ca        1 2V1     -0.151000
     13 C13         1.5340   -1.1680   -4.0930 ca        1 2V1     -0.081000
     14 C14         1.0650   -0.3350   -5.1130 ca        1 2V1     -0.154600
     15 C15         0.0520    0.5880   -4.8410 ca        1 2V1     -0.081000
     16 C16        -0.4750    0.6950   -3.5600 ca        1 2V1     -0.151000
     17 C17         3.6310   -0.2540    1.1610 ca        1 2V1     -0.114500
     18 C18         1.7230   -0.3980   -6.4490 c         1 2V1      0.672700
     19 O19         2.9610   -0.2720   -6.5490 o         1 2V1     -0.604100
     20 N20         0.9340   -0.5280   -7.5890 n         1 2V1     -0.458800
     21 C21         1.5590   -0.6250   -8.8930 c3        1 2V1      0.048000
     22 C22         1.3490   -1.9860   -9.5700 c3        1 2V1      0.101900
     23 O23        -0.0220   -2.3720   -9.5660 os        1 2V1     -0.410600
     24 C24        -0.5750   -2.3960   -8.2560 c3        1 2V1      0.101900
     25 C25        -0.4170   -1.0420   -7.5460 c3        1 2V1      0.048000
     26 C26         4.4070    0.1200    0.0620 ca        1 2V1     -0.142000
     27 C27         5.8010   -0.1350    0.0470 ca        1 2V1      0.062600
     28 C28         6.3910   -0.7550    1.1680 ca        1 2V1     -0.142000
     29 C29         5.6010   -1.1190    2.2550 ca        1 2V1     -0.109000
     30 C30         4.2290   -0.8820    2.2610 ca        1 2V1     -0.145000
     31 N31         6.5210    0.2290   -1.1030 ns        1 2V1     -0.467100
     32 C32         7.8970    0.2080   -1.2760 c         1 2V1      0.672700
     33 C33         8.3820    0.6230   -2.6310 ca        1 2V1     -0.086600
     34 O34         8.6980   -0.1130   -0.3810 o         1 2V1     -0.574100
     35 C35         7.7840    0.1450   -3.8010 ca        1 2V1     -0.119000
     36 C36         8.2800    0.5430   -5.0400 ca        1 2V1     -0.025500
     37 C37         9.3660    1.4220   -5.1330 ca        1 2V1     -0.362500
     38 C38         9.9660    1.8760   -3.9520 ca        1 2V1     -0.025500
     39 C39         9.4840    1.4810   -2.7060 ca        1 2V1     -0.119000
     40 S40         9.9680    1.8880   -6.6340 sy        1 2V1      1.395300
     41 C41         8.9140    3.1660   -6.9750 c3        1 2V1     -0.361300
     42 O42        11.2680    2.3930   -6.4890 o         1 2V1     -0.653300
     43 O43         9.7650    0.8670   -7.5700 o         1 2V1     -0.653300
     44 H1          2.0950    0.4680    3.3150 h4        1 2V1      0.179000
     45 H2         -0.4030    1.1220    4.3840 h4        1 2V1      0.190000
     46 H3         -2.9100    1.3480    3.1640 h4        1 2V1      0.187000
     47 H4         -1.4760    0.3990   -1.2040 hn        1 2V1      0.455800
     48 H5          1.3810   -1.7640   -2.0290 ha        1 2V1      0.152000
     49 H6          2.3390   -1.8900   -4.3060 ha        1 2V1      0.147500
     50 H7         -0.3210    1.2480   -5.6410 ha        1 2V1      0.147500
     51 H8         -1.2650    1.4370   -3.3650 ha        1 2V1      0.152000
     52 H9          1.0990    0.1750   -9.5410 h1        1 2V1      0.068950
     53 H10         2.6640   -0.4260   -8.8060 h1        1 2V1      0.068950
     54 H11         1.6160   -1.9210  -10.6570 h1        1 2V1      0.057700
     55 H12         1.9640   -2.7810   -9.0700 h1        1 2V1      0.057700
     56 H13        -0.0960   -3.2170   -7.6600 h1        1 2V1      0.057700
     57 H14        -1.6620   -2.6200   -8.4160 h1        1 2V1      0.057700
     58 H15        -1.0790   -0.2890   -8.0630 h1        1 2V1      0.068950
     59 H16        -0.7680   -1.1530   -6.4830 h1        1 2V1      0.068950
     60 H17         3.9250    0.6100   -0.7990 ha        1 2V1      0.151000
     61 H18         7.4740   -0.9600    1.1940 ha        1 2V1      0.175000
     62 H19         6.0730   -1.6080    3.1200 ha        1 2V1      0.139000
     63 H20         3.6200   -1.2000    3.1190 ha        1 2V1      0.134000
     64 H21         5.9710    0.5540   -1.8690 hn        1 2V1      0.325500
     65 H22         6.9370   -0.5580   -3.7570 ha        1 2V1      0.157500
     66 H23         7.8210    0.1500   -5.9650 ha        1 2V1      0.163500
     67 H24        10.8450    2.5430   -4.0140 ha        1 2V1      0.163500
     68 H25         9.9710    1.8260   -1.7800 ha        1 2V1      0.157500
     69 H26         9.0030    4.0150   -6.2550 h1        1 2V1      0.116367
     70 H27         7.8380    2.8620   -6.9790 h1        1 2V1      0.116367
     71 H28         9.1180    3.5960   -7.9890 h1        1 2V1      0.116367
@<TRIPOS>BOND
     1    1    2 2   
     2    1    5 1   
     3    1   10 1   
     4    2    3 1   
     5    3    4 2   
     6    3   17 1   
     7    4    6 1   
     8    4   44 1   
     9    5    6 1   
    10    5    9 2   
    11    6    7 1   
    12    7    8 2   
    13    7   45 1   
    14    8    9 1   
    15    8   46 1   
    16   10   11 1   
    17   10   47 1   
    18   11   12 ar  
    19   11   16 ar  
    20   12   13 ar  
    21   12   48 1   
    22   13   14 ar  
    23   13   49 1   
    24   14   15 ar  
    25   14   18 1   
    26   15   16 ar  
    27   15   50 1   
    28   16   51 1   
    29   17   26 ar  
    30   17   30 ar  
    31   18   19 2   
    32   18   20 1   
    33   20   21 1   
    34   20   25 1   
    35   21   22 1   
    36   21   52 1   
    37   21   53 1   
    38   22   23 1   
    39   22   54 1   
    40   22   55 1   
    41   23   24 1   
    42   24   25 1   
    43   24   56 1   
    44   24   57 1   
    45   25   58 1   
    46   25   59 1   
    47   26   27 ar  
    48   26   60 1   
    49   27   28 ar  
    50   27   31 1   
    51   28   29 ar  
    52   28   61 1   
    53   29   30 ar  
    54   29   62 1   
    55   30   63 1   
    56   31   32 1   
    57   31   64 1   
    58   32   33 1   
    59   32   34 2   
    60   33   35 ar  
    61   33   39 ar  
    62   35   36 ar  
    63   35   65 1   
    64   36   37 ar  
    65   36   66 1   
    66   37   38 ar  
    67   37   40 1   
    68   38   39 ar  
    69   38   67 1   
    70   39   68 1   
    71   40   41 1   
    72   40   42 2   
    73   40   43 2   
    74   41   69 1   
    75   41   70 1   
    76   41   71 1   
@<TRIPOS>SUBSTRUCTURE
     1 2V1         1 TEMP              0 ****  ****    0 ROOT
