@<TRIPOS>MOLECULE
2V2
   66    69     1     0     0
SMALL
bcc


@<TRIPOS>ATOM
      1 C1          0.3060   -0.2870   -0.4080 c         1 2V2      0.698700
      2 C2          1.6270    0.2360   -0.0760 cc        1 2V2     -0.326200
      3 C3          2.0180    0.4330    1.2560 cd        1 2V2      0.069000
      4 C4          1.0950    0.1760    2.2770 cd        1 2V2     -0.071200
      5 C5         -0.2000   -0.2550    1.9420 cc        1 2V2      0.113600
      6 N6         -0.5910   -0.4860    0.6570 n         1 2V2     -0.253000
      7 O7         -0.0060   -0.5680   -1.5980 o         1 2V2     -0.723500
      8 C8         -1.9490   -0.9300    0.3710 c3        1 2V2      0.033300
      9 C9          1.4920    0.3370    3.6740 ca        1 2V2     -0.116800
     10 C10         1.3090   -0.7400    4.5510 ca        1 2V2     -0.109000
     11 C11         1.7890   -0.6620    5.8540 ca        1 2V2     -0.107000
     12 C12         2.4930    0.4620    6.2750 ca        1 2V2     -0.094000
     13 C13         2.6830    1.5570    5.4050 ca        1 2V2      0.062600
     14 C14         2.1060    1.5260    4.1090 ca        1 2V2     -0.027300
     15 C15         2.1320    2.7320    3.2480 c3        1 2V2     -0.078800
     16 N16         3.4540    2.6650    5.8370 n         1 2V2     -0.340500
     17 C17         3.1340    3.2860    7.0660 cc        1 2V2      0.470800
     18 N18         3.8120    4.2310    7.6500 nd        1 2V2     -0.564100
     19 C19         4.6440    3.0510    5.1620 c         1 2V2      0.731100
     20 O20         4.9520    2.5040    4.0840 o         1 2V2     -0.662500
     21 C21         5.4340    4.1120    5.8080 ca        1 2V2     -0.197600
     22 C22         4.9980    4.6760    7.0380 ca        1 2V2      0.164400
     23 C23         5.7740    5.6860    7.6410 ca        1 2V2     -0.107000
     24 C24         6.9600    6.1270    7.0460 ca        1 2V2     -0.005300
     25 C25         7.3750    5.5520    5.8330 ca        1 2V2     -0.135000
     26 C26         6.6240    4.5580    5.2210 ca        1 2V2     -0.064000
     27 C27         7.7580    7.2070    7.7330 c3        1 2V2     -0.020700
     28 C28         9.0180    7.5790    6.9620 c3        1 2V2     -0.090433
     29 C29         6.8950    8.4590    7.8710 c3        1 2V2     -0.090433
     30 C30         8.1720    6.7210    9.1200 c3        1 2V2     -0.090433
     31 N31         2.4790    0.6250   -1.1830 n4        1 2V2     -0.449600
     32 C32         3.1360   -0.5550   -1.8580 c         1 2V2      0.472100
     33 O33         4.3020   -0.8230   -1.6220 o         1 2V2     -0.301100
     34 N34         2.3150   -1.3810   -2.7920 n4        1 2V2     -0.632800
     35 C35         3.0890   -2.5270   -3.3480 c3        1 2V2      0.082100
     36 H1          3.0260    0.8050    1.5350 ha        1 2V2      0.204000
     37 H2         -0.9600   -0.4260    2.7400 h4        1 2V2      0.225000
     38 H3         -2.1830   -0.7570   -0.7150 h1        1 2V2      0.103033
     39 H4         -2.0350   -2.0260    0.6020 h1        1 2V2      0.103033
     40 H5         -2.6740   -0.3490    1.0040 h1        1 2V2      0.103033
     41 H6          0.8030   -1.6550    4.2080 ha        1 2V2      0.133000
     42 H7          1.6340   -1.5030    6.5510 ha        1 2V2      0.167000
     43 H8          2.9130    0.4860    7.2970 ha        1 2V2      0.171000
     44 H9          1.8360    3.6370    3.8400 hc        1 2V2      0.059700
     45 H10         1.4200    2.6450    2.3910 hc        1 2V2      0.059700
     46 H11         3.1640    2.9110    2.8490 hc        1 2V2      0.059700
     47 H12         2.2020    2.9270    7.5550 h5        1 2V2      0.063800
     48 H13         5.4390    6.1260    8.5960 ha        1 2V2      0.169000
     49 H14         8.3090    5.8820    5.3490 ha        1 2V2      0.155000
     50 H15         6.9580    4.1060    4.2730 ha        1 2V2      0.151000
     51 H16         8.7620    7.9650    5.9460 hc        1 2V2      0.044700
     52 H17         9.6970    6.6980    6.8620 hc        1 2V2      0.044700
     53 H18         9.5680    8.3820    7.5120 hc        1 2V2      0.044700
     54 H19         5.9850    8.2490    8.4820 hc        1 2V2      0.044700
     55 H20         6.5770    8.8250    6.8660 hc        1 2V2      0.044700
     56 H21         7.4810    9.2650    8.3760 hc        1 2V2      0.044700
     57 H22         8.7690    7.5140    9.6330 hc        1 2V2      0.044700
     58 H23         8.7970    5.8000    9.0390 hc        1 2V2      0.044700
     59 H24         7.2760    6.4940    9.7450 hc        1 2V2      0.044700
     60 H25         1.9050    1.1490   -1.8680 hn        1 2V2      0.504300
     61 H26         1.9730   -0.7850   -3.5660 hn        1 2V2      0.506300
     62 H27         3.9830   -2.1500   -3.9170 hx        1 2V2      0.137033
     63 H28         3.4340   -3.1950   -2.5100 hx        1 2V2      0.137033
     64 H29         2.4040   -3.0970   -4.0390 hx        1 2V2      0.137033
     65 H312        3.2440    1.2340   -0.8280 hn        1 2V2      0.504300
     66 H342        1.4650   -1.7320   -2.2870 hn        1 2V2      0.506300
@<TRIPOS>BOND
     1    1    2 1   
     2    1    6 1   
     3    1    7 2   
     4    2    3 2   
     5    2   31 1   
     6    3    4 1   
     7    3   36 1   
     8    4    5 2   
     9    4    9 1   
    10    5    6 1   
    11    5   37 1   
    12    6    8 1   
    13    8   38 1   
    14    8   39 1   
    15    8   40 1   
    16    9   10 ar  
    17    9   14 ar  
    18   10   11 ar  
    19   10   41 1   
    20   11   12 ar  
    21   11   42 1   
    22   12   13 ar  
    23   12   43 1   
    24   13   14 ar  
    25   13   16 1   
    26   14   15 1   
    27   15   44 1   
    28   15   45 1   
    29   15   46 1   
    30   16   17 1   
    31   16   19 1   
    32   17   18 2   
    33   17   47 1   
    34   18   22 1   
    35   19   20 2   
    36   19   21 1   
    37   21   22 ar  
    38   21   26 ar  
    39   22   23 ar  
    40   23   24 ar  
    41   23   48 1   
    42   24   25 ar  
    43   24   27 1   
    44   25   26 ar  
    45   25   49 1   
    46   26   50 1   
    47   27   28 1   
    48   27   29 1   
    49   27   30 1   
    50   28   51 1   
    51   28   52 1   
    52   28   53 1   
    53   29   54 1   
    54   29   55 1   
    55   29   56 1   
    56   30   57 1   
    57   30   58 1   
    58   30   59 1   
    59   31   32 1   
    60   31   60 1   
    61   31   65 1   
    62   32   33 2   
    63   32   34 1   
    64   34   35 1   
    65   34   61 1   
    66   34   66 1   
    67   35   62 1   
    68   35   63 1   
    69   35   64 1   
@<TRIPOS>SUBSTRUCTURE
     1 2V2         1 TEMP              0 ****  ****    0 ROOT
