@<TRIPOS>MOLECULE
2V2
   66    69     1     0     0
SMALL
bcc


@<TRIPOS>ATOM
      1 C1          0.2920   -0.2560   -0.4180 c         1 2V2      0.698700
      2 C2          1.6150    0.2610   -0.0850 cc        1 2V2     -0.326200
      3 C3          2.0080    0.4510    1.2480 cd        1 2V2      0.069000
      4 C4          1.0850    0.1930    2.2690 cd        1 2V2     -0.071200
      5 C5         -0.2130   -0.2330    1.9320 cc        1 2V2      0.113600
      6 N6         -0.6050   -0.4570    0.6470 n         1 2V2     -0.253000
      7 O7         -0.0210   -0.5310   -1.6090 o         1 2V2     -0.723500
      8 C8         -1.9640   -0.8950    0.3600 c3        1 2V2      0.033300
      9 C9          1.4820    0.3460    3.6660 ca        1 2V2     -0.116800
     10 C10         1.2980   -0.7350    4.5390 ca        1 2V2     -0.109000
     11 C11         1.7780   -0.6640    5.8420 ca        1 2V2     -0.107000
     12 C12         2.4870    0.4550    6.2670 ca        1 2V2     -0.094000
     13 C13         2.6800    1.5540    5.4010 ca        1 2V2      0.062600
     14 C14         2.1010    1.5310    4.1060 ca        1 2V2     -0.027300
     15 C15         2.1300    2.7410    3.2500 c3        1 2V2     -0.078800
     16 N16         3.4560    2.6570    5.8370 n         1 2V2     -0.340500
     17 C17         3.1400    3.2730    7.0700 cc        1 2V2      0.470800
     18 N18         3.8220    4.2140    7.6570 nd        1 2V2     -0.564100
     19 C19         4.6460    3.0420    5.1630 c         1 2V2      0.731100
     20 O20         4.9500    2.4980    4.0820 o         1 2V2     -0.662500
     21 C21         5.4410    4.0970    5.8120 ca        1 2V2     -0.197600
     22 C22         5.0080    4.6570    7.0450 ca        1 2V2      0.164400
     23 C23         5.7900    5.6610    7.6520 ca        1 2V2     -0.107000
     24 C24         6.9770    6.1000    7.0570 ca        1 2V2     -0.005300
     25 C25         7.3880    5.5290    5.8410 ca        1 2V2     -0.135000
     26 C26         6.6320    4.5400    5.2260 ca        1 2V2     -0.064000
     27 C27         7.7790    7.1740    7.7470 c3        1 2V2     -0.020700
     28 C28         9.0400    7.5450    6.9760 c3        1 2V2     -0.090433
     29 C29         6.9210    8.4290    7.8930 c3        1 2V2     -0.090433
     30 C30         8.1930    6.6810    9.1320 c3        1 2V2     -0.090433
     31 N31         2.4680    0.6520   -1.1910 n4        1 2V2     -0.449600
     32 C32         3.1210   -0.5280   -1.8710 c         1 2V2      0.472100
     33 O33         4.2860   -0.8000   -1.6360 o         1 2V2     -0.301100
     34 N34         2.2960   -1.3460   -2.8080 n4        1 2V2     -0.632800
     35 C35         3.0660   -2.4930   -3.3680 c3        1 2V2      0.082100
     36 H1          3.0170    0.8180    1.5280 ha        1 2V2      0.204000
     37 H2         -0.9720   -0.4060    2.7300 h4        1 2V2      0.225000
     38 H3         -2.0540   -1.9920    0.5870 h1        1 2V2      0.103033
     39 H4         -2.1980   -0.7180   -0.7260 h1        1 2V2      0.103033
     40 H5         -2.6870   -0.3140    0.9950 h1        1 2V2      0.103033
     41 H6          0.7880   -1.6460    4.1920 ha        1 2V2      0.133000
     42 H7          1.6210   -1.5080    6.5350 ha        1 2V2      0.167000
     43 H8          2.9080    0.4730    7.2880 ha        1 2V2      0.171000
     44 H9          1.4170    2.6590    2.3930 hc        1 2V2      0.059700
     45 H10         3.1630    2.9180    2.8510 hc        1 2V2      0.059700
     46 H11         1.8370    3.6440    3.8460 hc        1 2V2      0.059700
     47 H12         2.2060    2.9160    7.5580 h5        1 2V2      0.063800
     48 H13         5.4570    6.0980    8.6090 ha        1 2V2      0.169000
     49 H14         8.3220    5.8570    5.3570 ha        1 2V2      0.155000
     50 H15         6.9630    4.0920    4.2750 ha        1 2V2      0.151000
     51 H16         9.5930    8.3430    7.5300 hc        1 2V2      0.044700
     52 H17         8.7840    7.9360    5.9630 hc        1 2V2      0.044700
     53 H18         9.7150    6.6620    6.8720 hc        1 2V2      0.044700
     54 H19         7.5110    9.2300    8.4000 hc        1 2V2      0.044700
     55 H20         6.6040    8.8010    6.8900 hc        1 2V2      0.044700
     56 H21         6.0120    8.2190    8.5040 hc        1 2V2      0.044700
     57 H22         8.8150    5.7580    9.0460 hc        1 2V2      0.044700
     58 H23         8.7940    7.4680    9.6480 hc        1 2V2      0.044700
     59 H24         7.2970    6.4540    9.7570 hc        1 2V2      0.044700
     60 H25         1.8950    1.1800   -1.8730 hn        1 2V2      0.504300
     61 H26         1.9570   -0.7460   -3.5790 hn        1 2V2      0.506300
     62 H27         3.4090   -3.1660   -2.5340 hx        1 2V2      0.137033
     63 H28         2.3790   -3.0580   -4.0620 hx        1 2V2      0.137033
     64 H29         3.9620   -2.1170   -3.9360 hx        1 2V2      0.137033
     65 H312        3.2350    1.2560   -0.8330 hn        1 2V2      0.504300
     66 H342        1.4450   -1.6970   -2.3040 hn        1 2V2      0.506300
@<TRIPOS>BOND
     1    1    2 1   
     2    1    6 1   
     3    1    7 2   
     4    2    3 2   
     5    2   31 1   
     6    3    4 1   
     7    3   36 1   
     8    4    5 2   
     9    4    9 1   
    10    5    6 1   
    11    5   37 1   
    12    6    8 1   
    13    8   38 1   
    14    8   39 1   
    15    8   40 1   
    16    9   10 ar  
    17    9   14 ar  
    18   10   11 ar  
    19   10   41 1   
    20   11   12 ar  
    21   11   42 1   
    22   12   13 ar  
    23   12   43 1   
    24   13   14 ar  
    25   13   16 1   
    26   14   15 1   
    27   15   44 1   
    28   15   45 1   
    29   15   46 1   
    30   16   17 1   
    31   16   19 1   
    32   17   18 2   
    33   17   47 1   
    34   18   22 1   
    35   19   20 2   
    36   19   21 1   
    37   21   22 ar  
    38   21   26 ar  
    39   22   23 ar  
    40   23   24 ar  
    41   23   48 1   
    42   24   25 ar  
    43   24   27 1   
    44   25   26 ar  
    45   25   49 1   
    46   26   50 1   
    47   27   28 1   
    48   27   29 1   
    49   27   30 1   
    50   28   51 1   
    51   28   52 1   
    52   28   53 1   
    53   29   54 1   
    54   29   55 1   
    55   29   56 1   
    56   30   57 1   
    57   30   58 1   
    58   30   59 1   
    59   31   32 1   
    60   31   60 1   
    61   31   65 1   
    62   32   33 2   
    63   32   34 1   
    64   34   35 1   
    65   34   61 1   
    66   34   66 1   
    67   35   62 1   
    68   35   63 1   
    69   35   64 1   
@<TRIPOS>SUBSTRUCTURE
     1 2V2         1 TEMP              0 ****  ****    0 ROOT
