@<TRIPOS>MOLECULE
2V2
   66    69     1     0     0
SMALL
bcc


@<TRIPOS>ATOM
      1 C1          0.2960   -0.2310   -0.4380 c         1 2V2      0.698700
      2 C2          1.6250    0.2620   -0.0910 cc        1 2V2     -0.326200
      3 C3          2.0020    0.4590    1.2460 cd        1 2V2      0.069000
      4 C4          1.0580    0.2330    2.2550 cd        1 2V2     -0.071200
      5 C5         -0.2420   -0.1690    1.9030 cc        1 2V2      0.113600
      6 N6         -0.6210   -0.3990    0.6150 n         1 2V2     -0.253000
      7 O7         -0.0050   -0.5130   -1.6300 o         1 2V2     -0.723500
      8 C8         -1.9850   -0.8110    0.3130 c3        1 2V2      0.033300
      9 C9          1.4390    0.3940    3.6560 ca        1 2V2     -0.116800
     10 C10         1.2180   -0.6730    4.5380 ca        1 2V2     -0.109000
     11 C11         1.6800   -0.5980    5.8470 ca        1 2V2     -0.107000
     12 C12         2.4070    0.5120    6.2700 ca        1 2V2     -0.094000
     13 C13         2.6360    1.5950    5.3960 ca        1 2V2      0.062600
     14 C14         2.0760    1.5700    4.0920 ca        1 2V2     -0.027300
     15 C15         2.1440    2.7690    3.2230 c3        1 2V2     -0.078800
     16 N16         3.4290    2.6870    5.8300 n         1 2V2     -0.340500
     17 C17         3.1070    3.3240    7.0510 cc        1 2V2      0.470800
     18 N18         3.8010    4.2570    7.6380 nd        1 2V2     -0.564100
     19 C19         4.6360    3.0380    5.1700 c         1 2V2      0.731100
     20 O20         4.9460    2.4760    4.1010 o         1 2V2     -0.662500
     21 C21         5.4450    4.0850    5.8190 ca        1 2V2     -0.197600
     22 C22         5.0050    4.6680    7.0390 ca        1 2V2      0.164400
     23 C23         5.7980    5.6620    7.6470 ca        1 2V2     -0.107000
     24 C24         7.0030    6.0690    7.0650 ca        1 2V2     -0.005300
     25 C25         7.4200    5.4760    5.8620 ca        1 2V2     -0.135000
     26 C26         6.6530    4.4960    5.2470 ca        1 2V2     -0.064000
     27 C27         7.8180    7.1340    7.7550 c3        1 2V2     -0.020700
     28 C28         9.0980    7.4690    6.9990 c3        1 2V2     -0.090433
     29 C29         6.9850    8.4080    7.8740 c3        1 2V2     -0.090433
     30 C30         8.2000    6.6480    9.1510 c3        1 2V2     -0.090433
     31 N31         2.5020    0.6210   -1.1880 ny        1 2V2     -0.449600
     32 C32         3.1400   -0.5800   -1.8450 c         1 2V2      0.472100
     33 O33         4.2950   -0.8750   -1.5890 o         1 2V2     -0.301100
     34 N34         2.3120   -1.3920   -2.7850 ny        1 2V2     -0.632800
     35 C35         3.0640   -2.5620   -3.3210 c3        1 2V2      0.082100
     36 H1          3.0150    0.8070    1.5360 ha        1 2V2      0.204000
     37 H2         -1.0180   -0.3160    2.6920 h4        1 2V2      0.225000
     38 H3         -2.1020   -1.9030    0.5500 h1        1 2V2      0.103033
     39 H4         -2.1990   -0.6410   -0.7780 h1        1 2V2      0.103033
     40 H5         -2.7040   -0.2080    0.9310 h1        1 2V2      0.103033
     41 H6          0.6940   -1.5770    4.1940 ha        1 2V2      0.133000
     42 H7          1.4950   -1.4290    6.5470 ha        1 2V2      0.167000
     43 H8          2.8120    0.5330    7.2980 ha        1 2V2      0.171000
     44 H9          1.4430    2.6930    2.3560 hc        1 2V2      0.059700
     45 H10         3.1870    2.9190    2.8370 hc        1 2V2      0.059700
     46 H11         1.8620    3.6850    3.8040 hc        1 2V2      0.059700
     47 H12         2.1590    2.9930    7.5290 h5        1 2V2      0.063800
     48 H13         5.4610    6.1170    8.5940 ha        1 2V2      0.169000
     49 H14         8.3680    5.7780    5.3890 ha        1 2V2      0.155000
     50 H15         6.9880    4.0290    4.3060 ha        1 2V2      0.151000
     51 H16         9.6590    8.2620    7.5520 hc        1 2V2      0.044700
     52 H17         8.8650    7.8540    5.9780 hc        1 2V2      0.044700
     53 H18         9.7550    6.5710    6.9150 hc        1 2V2      0.044700
     54 H19         7.5830    9.2030    8.3810 hc        1 2V2      0.044700
     55 H20         6.6890    8.7750    6.8620 hc        1 2V2      0.044700
     56 H21         6.0620    8.2250    8.4740 hc        1 2V2      0.044700
     57 H22         8.8040    5.7110    9.0850 hc        1 2V2      0.044700
     58 H23         8.8100    7.4290    9.6670 hc        1 2V2      0.044700
     59 H24         7.2900    6.4470    9.7650 hc        1 2V2      0.044700
     60 H25         1.9520    1.1530   -1.8850 hn        1 2V2      0.504300
     61 H26         1.9970   -0.7940   -3.5680 hn        1 2V2      0.506300
     62 H27         3.3800   -3.2310   -2.4730 hx        1 2V2      0.137033
     63 H28         2.3750   -3.1200   -4.0180 hx        1 2V2      0.137033
     64 H29         3.9760   -2.2120   -3.8790 hx        1 2V2      0.137033
     65 H312        3.2770    1.2130   -0.8270 hn        1 2V2      0.504300
     66 H342        1.4460   -1.7180   -2.2900 hn        1 2V2      0.506300
@<TRIPOS>BOND
     1    1    2 1   
     2    1    6 1   
     3    1    7 2   
     4    2    3 2   
     5    2   31 1   
     6    3    4 1   
     7    3   36 1   
     8    4    5 2   
     9    4    9 1   
    10    5    6 1   
    11    5   37 1   
    12    6    8 1   
    13    8   38 1   
    14    8   39 1   
    15    8   40 1   
    16    9   10 ar  
    17    9   14 ar  
    18   10   11 ar  
    19   10   41 1   
    20   11   12 ar  
    21   11   42 1   
    22   12   13 ar  
    23   12   43 1   
    24   13   14 ar  
    25   13   16 1   
    26   14   15 1   
    27   15   44 1   
    28   15   45 1   
    29   15   46 1   
    30   16   17 1   
    31   16   19 1   
    32   17   18 2   
    33   17   47 1   
    34   18   22 1   
    35   19   20 2   
    36   19   21 1   
    37   21   22 ar  
    38   21   26 ar  
    39   22   23 ar  
    40   23   24 ar  
    41   23   48 1   
    42   24   25 ar  
    43   24   27 1   
    44   25   26 ar  
    45   25   49 1   
    46   26   50 1   
    47   27   28 1   
    48   27   29 1   
    49   27   30 1   
    50   28   51 1   
    51   28   52 1   
    52   28   53 1   
    53   29   54 1   
    54   29   55 1   
    55   29   56 1   
    56   30   57 1   
    57   30   58 1   
    58   30   59 1   
    59   31   32 1   
    60   31   60 1   
    61   31   65 1   
    62   32   33 2   
    63   32   34 1   
    64   34   35 1   
    65   34   61 1   
    66   34   66 1   
    67   35   62 1   
    68   35   63 1   
    69   35   64 1   
@<TRIPOS>SUBSTRUCTURE
     1 2V2         1 TEMP              0 ****  ****    0 ROOT
