@<TRIPOS>MOLECULE
2V3
   83    89     1     0     0
SMALL
bcc


@<TRIPOS>ATOM
      1 C1         -1.1810    0.6470    0.4210 cc        1 2V3     -0.020200
      2 C2          0.0540    0.6130   -0.1740 cd        1 2V3     -0.043000
      3 C3          1.2400    0.8180    0.5990 cd        1 2V3     -0.150200
      4 C4          1.1280    1.0710    1.9490 cc        1 2V3      0.021600
      5 C5         -1.2930    0.9510    1.8750 c         1 2V3      0.664700
      6 N6         -0.0890    1.1500    2.5860 n         1 2V3     -0.332000
      7 N7         -2.3840    0.5050   -0.3100 nh        1 2V3     -0.678700
      8 C8          2.5470    0.7020   -0.0460 ca        1 2V3     -0.004800
      9 C9          2.7910   -0.4410   -0.8210 ca        1 2V3     -0.126000
     10 C10         4.0180   -0.6170   -1.4480 ca        1 2V3     -0.111000
     11 C11         5.0260    0.3280   -1.2960 ca        1 2V3     -0.110000
     12 C12         4.8040    1.4820   -0.5170 ca        1 2V3      0.056600
     13 C13         3.5400    1.6890    0.0870 ca        1 2V3     -0.084300
     14 N14         5.8670    2.4220   -0.3610 n         1 2V3     -0.284200
     15 C15         6.2970    2.7470    0.9180 cc        1 2V3      0.020600
     16 C16         7.3370    3.5940    1.1550 cd        1 2V3     -0.233200
     17 C17         6.5340    2.9420   -1.5010 c         1 2V3      0.712100
     18 C18         7.6490    3.8770   -1.2550 ca        1 2V3     -0.206600
     19 C19         8.0490    4.1950    0.0590 ca        1 2V3      0.046200
     20 C20         9.1170    5.0790    0.2790 ca        1 2V3     -0.164000
     21 C21         9.7960    5.6550   -0.7940 ca        1 2V3      0.023700
     22 C22         9.4080    5.3470   -2.1070 ca        1 2V3     -0.205000
     23 C23         8.3440    4.4650   -2.3420 ca        1 2V3      0.204900
     24 O24         6.1640    2.6050   -2.6390 o         1 2V3     -0.602500
     25 C25         3.2260    2.9670    0.8020 c3        1 2V3      0.165700
     26 O26         3.6010    2.8320    2.1710 oh        1 2V3     -0.619800
     27 C27        -0.1170    1.3880    4.0090 c3        1 2V3      0.060300
     28 O28        -2.3840    1.0560    2.4720 o         1 2V3     -0.639500
     29 C29        -2.7650   -0.7920   -0.7510 ca        1 2V3      0.598200
     30 C30        10.9100    6.5770   -0.5300 cx        1 2V3     -0.100400
     31 F31         7.9930    4.1870   -3.6160 f         1 2V3     -0.111900
     32 C32        12.1160    6.6160   -1.4400 cx        1 2V3     -0.118900
     33 C33        11.1600    7.7670   -1.4270 cx        1 2V3     -0.118900
     34 C34        -1.8040   -1.7810   -1.0870 ca        1 2V3     -0.261300
     35 C35        -2.2200   -2.9910   -1.6320 ca        1 2V3     -0.118000
     36 C36        -3.5900   -3.2410   -1.8370 ca        1 2V3     -0.020700
     37 C37        -4.4840   -2.1950   -1.4520 ca        1 2V3      0.414200
     38 N38        -4.1080   -1.0280   -0.9310 nb        1 2V3     -0.688000
     39 N39        -4.1140   -4.4720   -2.3030 nh        1 2V3     -0.619000
     40 C40        -3.1600   -5.5650   -2.4080 c3        1 2V3      0.180800
     41 C41        -3.8430   -6.9010   -2.7620 c3        1 2V3      0.165800
     42 N42        -4.6970   -6.8090   -3.9380 n3        1 2V3     -0.730600
     43 C43        -5.6370   -5.7020   -3.8480 c3        1 2V3      0.165800
     44 C44        -4.9630   -4.3640   -3.4830 c3        1 2V3      0.180800
     45 C45        -5.3430   -8.0840   -4.2270 c3        1 2V3      0.169800
     46 C46        -6.1260   -8.1080   -5.5290 c3        1 2V3     -0.095100
     47 H1          0.1640    0.4290   -1.2570 ha        1 2V3      0.160000
     48 H2          2.0270    1.2350    2.5800 h4        1 2V3      0.182000
     49 H3         -3.1390    1.0120    0.1250 hn        1 2V3      0.434800
     50 H4          2.0000   -1.1990   -0.9290 ha        1 2V3      0.139000
     51 H5          4.1990   -1.5100   -2.0670 ha        1 2V3      0.142000
     52 H6          5.9910    0.1880   -1.8110 ha        1 2V3      0.157000
     53 H7          5.7230    2.2760    1.7440 h4        1 2V3      0.181000
     54 H8          7.6460    3.8250    2.1820 ha        1 2V3      0.153000
     55 H9          9.4140    5.3120    1.3120 ha        1 2V3      0.142000
     56 H10         9.9330    5.7940   -2.9640 ha        1 2V3      0.153000
     57 H11         3.7740    3.8330    0.3410 h1        1 2V3      0.047200
     58 H12         2.1210    3.1780    0.7470 h1        1 2V3      0.047200
     59 H13         3.5050    3.7060    2.5670 ho        1 2V3      0.407000
     60 H14         0.4440    2.3300    4.2460 h1        1 2V3      0.062367
     61 H15        -1.1810    1.4940    4.3540 h1        1 2V3      0.062367
     62 H16         0.3620    0.5290    4.5500 h1        1 2V3      0.062367
     63 H17        11.0950    6.7180    0.5560 hc        1 2V3      0.086700
     64 H18        13.1130    6.7350   -0.9810 hc        1 2V3      0.076700
     65 H19        12.1430    5.9480   -2.3200 hc        1 2V3      0.076700
     66 H20        10.4990    7.9290   -2.2970 hc        1 2V3      0.076700
     67 H21        11.4660    8.7190   -0.9590 hc        1 2V3      0.076700
     68 H22        -0.7320   -1.6060   -0.9200 ha        1 2V3      0.141000
     69 H23        -1.4590   -3.7430   -1.8930 ha        1 2V3      0.137000
     70 H24        -5.5780   -2.3170   -1.5590 h4        1 2V3      0.027100
     71 H25        -2.6580   -5.6900   -1.4080 h1        1 2V3      0.043450
     72 H26        -2.3650   -5.3520   -3.1800 h1        1 2V3      0.043450
     73 H27        -3.0300   -7.6470   -2.9830 h1        1 2V3      0.039450
     74 H28        -4.4120   -7.2660   -1.8570 h1        1 2V3      0.039450
     75 H30        -6.4580   -5.9100   -3.1010 h1        1 2V3      0.039450
     76 H31        -6.1120   -5.5720   -4.8600 h1        1 2V3      0.039450
     77 H32        -4.3780   -3.9970   -4.3750 h1        1 2V3      0.043450
     78 H33        -5.7780   -3.6180   -3.2700 h1        1 2V3      0.043450
     79 H34        -4.5240   -8.8570   -4.2910 h1        1 2V3      0.030200
     80 H35        -6.0360   -8.3950   -3.3890 h1        1 2V3      0.030200
     81 H36        -6.4230   -9.1620   -5.7480 hc        1 2V3      0.040367
     82 H37        -5.5120   -7.7260   -6.3800 hc        1 2V3      0.040367
     83 H38        -7.0530   -7.4890   -5.4540 hc        1 2V3      0.040367
@<TRIPOS>BOND
     1    1    2 2   
     2    1    5 1   
     3    1    7 1   
     4    2    3 1   
     5    2   47 1   
     6    3    4 2   
     7    3    8 1   
     8    4    6 1   
     9    4   48 1   
    10    5    6 1   
    11    5   28 2   
    12    6   27 1   
    13    7   29 1   
    14    7   49 1   
    15    8    9 ar  
    16    8   13 ar  
    17    9   10 ar  
    18    9   50 1   
    19   10   11 ar  
    20   10   51 1   
    21   11   12 ar  
    22   11   52 1   
    23   12   13 ar  
    24   12   14 1   
    25   13   25 1   
    26   14   15 1   
    27   14   17 1   
    28   15   16 2   
    29   15   53 1   
    30   16   19 1   
    31   16   54 1   
    32   17   18 1   
    33   17   24 2   
    34   18   19 ar  
    35   18   23 ar  
    36   19   20 ar  
    37   20   21 ar  
    38   20   55 1   
    39   21   22 ar  
    40   21   30 1   
    41   22   23 ar  
    42   22   56 1   
    43   23   31 1   
    44   25   26 1   
    45   25   57 1   
    46   25   58 1   
    47   26   59 1   
    48   27   60 1   
    49   27   61 1   
    50   27   62 1   
    51   29   34 ar  
    52   29   38 ar  
    53   30   32 1   
    54   30   33 1   
    55   30   63 1   
    56   32   33 1   
    57   32   64 1   
    58   32   65 1   
    59   33   66 1   
    60   33   67 1   
    61   34   35 ar  
    62   34   68 1   
    63   35   36 ar  
    64   35   69 1   
    65   36   37 ar  
    66   36   39 1   
    67   37   38 ar  
    68   37   70 1   
    69   39   40 1   
    70   39   44 1   
    71   40   41 1   
    72   40   71 1   
    73   40   72 1   
    74   41   42 1   
    75   41   73 1   
    76   41   74 1   
    77   42   43 1   
    78   42   45 1   
    79   43   44 1   
    80   43   75 1   
    81   43   76 1   
    82   44   77 1   
    83   44   78 1   
    84   45   46 1   
    85   45   79 1   
    86   45   80 1   
    87   46   81 1   
    88   46   82 1   
    89   46   83 1   
@<TRIPOS>SUBSTRUCTURE
     1 2V3         1 TEMP              0 ****  ****    0 ROOT
