@<TRIPOS>MOLECULE
2V3
   83    89     1     0     0
SMALL
bcc


@<TRIPOS>ATOM
      1 C1         -1.1710    0.7550    0.1210 cc        1 2V3     -0.022200
      2 C2          0.0870    0.6530   -0.4160 cd        1 2V3     -0.039000
      3 C3          1.2440    0.8910    0.3900 cd        1 2V3     -0.157200
      4 C4          1.0800    1.2540    1.7110 cc        1 2V3      0.029600
      5 C5         -1.3380    1.1700    1.5400 c         1 2V3      0.664700
      6 N6         -0.1610    1.4080    2.2840 n         1 2V3     -0.329000
      7 N7         -2.3440    0.5790   -0.6510 nu        1 2V3     -0.678700
      8 C8          2.5730    0.6970   -0.1830 ca        1 2V3      0.000200
      9 C9          2.8070   -0.4900   -0.8960 ca        1 2V3     -0.119000
     10 C10         4.0600   -0.7570   -1.4340 ca        1 2V3     -0.117000
     11 C11         5.1030    0.1470   -1.2610 ca        1 2V3     -0.128000
     12 C12         4.8870    1.3450   -0.5540 ca        1 2V3      0.039600
     13 C13         3.6050    1.6400   -0.0310 ca        1 2V3     -0.090300
     14 N14         5.9890    2.2380   -0.3590 n         1 2V3     -0.297200
     15 C15         7.0110    1.8310    0.4890 cc        1 2V3      0.010600
     16 C16         8.1530    2.5500    0.6650 cd        1 2V3     -0.218200
     17 C17         6.1240    3.4110   -1.1450 c         1 2V3      0.712100
     18 C18         7.3580    4.1990   -0.9600 ca        1 2V3     -0.203600
     19 C19         8.3610    3.7720   -0.0660 ca        1 2V3      0.041200
     20 C20         9.5320    4.5280    0.0960 ca        1 2V3     -0.161000
     21 C21         9.7240    5.7080   -0.6230 ca        1 2V3      0.024700
     22 C22         8.7340    6.1420   -1.5170 ca        1 2V3     -0.201000
     23 C23         7.5590    5.3970   -1.6900 ca        1 2V3      0.204900
     24 O24         5.2140    3.7350   -1.9270 o         1 2V3     -0.594500
     25 C25         3.3400    2.9570    0.6380 c3        1 2V3      0.158700
     26 O26         3.7070    2.9450    2.0070 oh        1 2V3     -0.606800
     27 C27        -0.2500    1.7800    3.6760 c3        1 2V3      0.058300
     28 O28        -2.4490    1.3340    2.0820 o         1 2V3     -0.637500
     29 C29        -2.7380   -0.7420   -0.9970 ca        1 2V3      0.600200
     30 C30        10.9610    6.4760   -0.4290 cx        1 2V3     -0.102400
     31 F31         6.6240    5.8400   -2.5570 f         1 2V3     -0.109900
     32 C32        11.6050    7.2100   -1.5830 cx        1 2V3     -0.118400
     33 C33        10.9520    7.9860   -0.4830 cx        1 2V3     -0.118400
     34 C34        -1.7880   -1.7750   -1.2090 ca        1 2V3     -0.263300
     35 C35        -2.2090   -3.0180   -1.6690 ca        1 2V3     -0.118000
     36 C36        -3.5750   -3.2570   -1.9100 ca        1 2V3     -0.022700
     37 C37        -4.4590   -2.1650   -1.6510 ca        1 2V3      0.415200
     38 N38        -4.0780   -0.9660   -1.2140 nb        1 2V3     -0.688000
     39 N39        -4.1090   -4.5130   -2.2930 nh        1 2V3     -0.619000
     40 C40        -3.1790   -5.6300   -2.2600 c3        1 2V3      0.180800
     41 C41        -3.8790   -6.9770   -2.5300 c3        1 2V3      0.165800
     42 N42        -4.6770   -6.9690   -3.7490 n3        1 2V3     -0.730600
     43 C43        -5.5910   -5.8370   -3.7980 c3        1 2V3      0.165800
     44 C44        -4.9010   -4.4880   -3.5170 c3        1 2V3      0.180800
     45 C45        -5.3430   -8.2490   -3.9570 c3        1 2V3      0.169800
     46 C46        -6.0690   -8.3690   -5.2870 c3        1 2V3     -0.095100
     47 H1          0.2370    0.3910   -1.4780 ha        1 2V3      0.158000
     48 H2          1.9530    1.4540    2.3680 h4        1 2V3      0.184000
     49 H3         -3.1040    1.1380   -0.2950 hn        1 2V3      0.434800
     50 H4          1.9870   -1.2140   -1.0220 ha        1 2V3      0.140000
     51 H5          4.2320   -1.6870   -1.9980 ha        1 2V3      0.141000
     52 H6          6.0950   -0.0790   -1.6850 ha        1 2V3      0.145000
     53 H7          6.8300    0.8800    1.0250 h4        1 2V3      0.159000
     54 H8          8.9300    2.2070    1.3620 ha        1 2V3      0.154000
     55 H9         10.3030    4.1770    0.8000 ha        1 2V3      0.143000
     56 H10         8.8690    7.0710   -2.0910 ha        1 2V3      0.155000
     57 H11         2.2390    3.1900    0.6460 h1        1 2V3      0.072700
     58 H12         3.8680    3.7880    0.0940 h1        1 2V3      0.072700
     59 H13         4.6660    2.8580    2.0490 ho        1 2V3      0.403000
     60 H14        -0.0050    0.8960    4.3230 h1        1 2V3      0.064367
     61 H15         0.4720    2.6100    3.8950 h1        1 2V3      0.064367
     62 H16        -1.2950    2.1240    3.9060 h1        1 2V3      0.064367
     63 H17        11.6430    6.0030    0.3090 hc        1 2V3      0.087700
     64 H18        11.1230    7.1730   -2.5760 hc        1 2V3      0.077700
     65 H19        12.7070    7.2010   -1.6580 hc        1 2V3      0.077700
     66 H20        11.5810    8.5390    0.2380 hc        1 2V3      0.077700
     67 H21         9.9990    8.5080   -0.6830 hc        1 2V3      0.077700
     68 H22        -0.7200   -1.6060   -1.0120 ha        1 2V3      0.140000
     69 H23        -1.4560   -3.8040   -1.8330 ha        1 2V3      0.136000
     70 H24        -5.5510   -2.2740   -1.7960 h4        1 2V3      0.027100
     71 H25        -2.3450   -5.5020   -3.0100 h1        1 2V3      0.043450
     72 H26        -2.7250   -5.6790   -1.2310 h1        1 2V3      0.043450
     73 H27        -4.4980   -7.2510   -1.6260 h1        1 2V3      0.039450
     74 H28        -3.0760   -7.7570   -2.6490 h1        1 2V3      0.039450
     75 H30        -6.4500   -5.9620   -3.0760 h1        1 2V3      0.039450
     76 H31        -6.0160   -5.7850   -4.8400 h1        1 2V3      0.039450
     77 H32        -4.2670   -4.2130   -4.4090 h1        1 2V3      0.043450
     78 H33        -5.7050   -3.7080   -3.4070 h1        1 2V3      0.043450
     79 H34        -6.0800   -8.4700   -3.1280 h1        1 2V3      0.030200
     80 H35        -4.5430   -9.0430   -3.9160 h1        1 2V3      0.030200
     81 H36        -6.9810   -7.7260   -5.3080 hc        1 2V3      0.040033
     82 H37        -5.4080   -8.0770   -6.1380 hc        1 2V3      0.040033
     83 H38        -6.3830   -9.4310   -5.4270 hc        1 2V3      0.040033
@<TRIPOS>BOND
     1    1    2 2   
     2    1    5 1   
     3    1    7 1   
     4    2    3 1   
     5    2   47 1   
     6    3    4 2   
     7    3    8 1   
     8    4    6 1   
     9    4   48 1   
    10    5    6 1   
    11    5   28 2   
    12    6   27 1   
    13    7   29 1   
    14    7   49 1   
    15    8    9 ar  
    16    8   13 ar  
    17    9   10 ar  
    18    9   50 1   
    19   10   11 ar  
    20   10   51 1   
    21   11   12 ar  
    22   11   52 1   
    23   12   13 ar  
    24   12   14 1   
    25   13   25 1   
    26   14   15 1   
    27   14   17 1   
    28   15   16 2   
    29   15   53 1   
    30   16   19 1   
    31   16   54 1   
    32   17   18 1   
    33   17   24 2   
    34   18   19 ar  
    35   18   23 ar  
    36   19   20 ar  
    37   20   21 ar  
    38   20   55 1   
    39   21   22 ar  
    40   21   30 1   
    41   22   23 ar  
    42   22   56 1   
    43   23   31 1   
    44   25   26 1   
    45   25   57 1   
    46   25   58 1   
    47   26   59 1   
    48   27   60 1   
    49   27   61 1   
    50   27   62 1   
    51   29   34 ar  
    52   29   38 ar  
    53   30   32 1   
    54   30   33 1   
    55   30   63 1   
    56   32   33 1   
    57   32   64 1   
    58   32   65 1   
    59   33   66 1   
    60   33   67 1   
    61   34   35 ar  
    62   34   68 1   
    63   35   36 ar  
    64   35   69 1   
    65   36   37 ar  
    66   36   39 1   
    67   37   38 ar  
    68   37   70 1   
    69   39   40 1   
    70   39   44 1   
    71   40   41 1   
    72   40   71 1   
    73   40   72 1   
    74   41   42 1   
    75   41   73 1   
    76   41   74 1   
    77   42   43 1   
    78   42   45 1   
    79   43   44 1   
    80   43   75 1   
    81   43   76 1   
    82   44   77 1   
    83   44   78 1   
    84   45   46 1   
    85   45   79 1   
    86   45   80 1   
    87   46   81 1   
    88   46   82 1   
    89   46   83 1   
@<TRIPOS>SUBSTRUCTURE
     1 2V3         1 TEMP              0 ****  ****    0 ROOT
