@<TRIPOS>MOLECULE
2V3
   84    90     1     0     0
SMALL
bcc


@<TRIPOS>ATOM
      1 C1         -1.0790    0.6910    0.5230 cc        1 2V3     -0.242200
      2 C2          0.0960    0.5920   -0.1970 cd        1 2V3      0.066000
      3 C3          1.3290    0.5980    0.4950 cd        1 2V3     -0.154200
      4 C4          1.3290    0.6810    1.8860 cc        1 2V3      0.090600
      5 C5         -1.0830    0.7640    1.9920 c         1 2V3      0.694700
      6 N6          0.1810    0.7630    2.6210 n         1 2V3     -0.293000
      7 N7         -2.3900    0.7260   -0.1150 n4        1 2V3     -0.567500
      8 C8          2.5870    0.4970   -0.2470 ca        1 2V3     -0.038800
      9 C9          2.7310   -0.5650   -1.1490 ca        1 2V3     -0.120000
     10 C10         3.9120   -0.7180   -1.8680 ca        1 2V3     -0.110000
     11 C11         4.9550    0.1850   -1.6980 ca        1 2V3     -0.118000
     12 C12         4.8250    1.2640   -0.7990 ca        1 2V3      0.058600
     13 C13         3.6250    1.4280   -0.0670 ca        1 2V3     -0.081300
     14 N14         5.9240    2.1620   -0.6380 n         1 2V3     -0.303200
     15 C15         7.1330    1.6360   -0.1830 cc        1 2V3     -0.009400
     16 C16         8.2790    2.3640   -0.1360 cd        1 2V3     -0.191200
     17 C17         5.8680    3.4740   -1.1780 c         1 2V3      0.716100
     18 C18         7.1040    4.2740   -1.1230 ca        1 2V3     -0.206600
     19 C19         8.2980    3.7260   -0.6110 ca        1 2V3      0.033200
     20 C20         9.4700    4.4920   -0.5740 ca        1 2V3     -0.155000
     21 C21         9.4770    5.8080   -1.0450 ca        1 2V3      0.033700
     22 C22         8.2960    6.3640   -1.5580 ca        1 2V3     -0.194000
     23 C23         7.1150    5.6090   -1.6010 ca        1 2V3      0.203900
     24 O24         4.7930    3.8940   -1.6420 o         1 2V3     -0.607500
     25 C25         3.4410    2.5840    0.8740 c3        1 2V3      0.160700
     26 O26         3.8650    2.2580    2.1870 oh        1 2V3     -0.618800
     27 C27         0.2480    0.8380    4.0680 c3        1 2V3      0.048300
     28 O28        -2.1370    0.8350    2.6590 o         1 2V3     -0.646500
     29 C29        -2.8080   -0.5800   -0.6650 ca        1 2V3      0.345200
     30 C30        10.7230    6.5830   -0.9940 cx        1 2V3     -0.111400
     31 F31         5.9930    6.1700   -2.0980 f         1 2V3     -0.110900
     32 C32        11.0620    7.5760   -2.0820 cx        1 2V3     -0.113900
     33 C33        10.6990    8.0700   -0.7180 cx        1 2V3     -0.113900
     34 C34        -3.6070   -1.4420    0.1160 ca        1 2V3     -0.126300
     35 C35        -4.0070   -2.6520   -0.4310 ca        1 2V3     -0.192000
     36 C36        -3.6240   -3.0070   -1.7570 ca        1 2V3      0.137300
     37 C37        -2.7640   -2.0580   -2.4340 ca        1 2V3      0.340200
     38 N38        -2.3730   -0.9000   -1.9200 nb        1 2V3     -0.615000
     39 N39        -4.0750   -4.1450   -2.3810 nh        1 2V3     -0.623000
     40 C40        -4.7530   -5.1530   -1.5870 c3        1 2V3      0.200300
     41 C41        -5.3830   -6.3050   -2.3930 c3        1 2V3      0.157800
     42 N42        -4.5080   -6.8010   -3.4420 n3        1 2V3     -0.728600
     43 C43        -4.1510   -5.7270   -4.3510 c3        1 2V3      0.157800
     44 C44        -3.4720   -4.5400   -3.6410 c3        1 2V3      0.200300
     45 C45        -5.0650   -7.9730   -4.1100 c3        1 2V3      0.167800
     46 C46        -4.1280   -8.6270   -5.1110 c3        1 2V3     -0.098100
     47 H1          0.1010    0.5160   -1.3000 ha        1 2V3      0.179000
     48 H2          2.2910    0.7050    2.4520 h4        1 2V3      0.217000
     49 H3         -3.0860    1.0020    0.5990 hn        1 2V3      0.470300
     50 H4          1.9090   -1.2850   -1.2820 ha        1 2V3      0.136000
     51 H5          4.0220   -1.5540   -2.5760 ha        1 2V3      0.150000
     52 H6          5.8860    0.0550   -2.2750 ha        1 2V3      0.156000
     53 H7          7.0930    0.5840    0.1570 h4        1 2V3      0.158000
     54 H8          9.2060    1.9260    0.2580 ha        1 2V3      0.160000
     55 H9         10.3930    4.0460   -0.1710 ha        1 2V3      0.148000
     56 H10         8.2830    7.3990   -1.9320 ha        1 2V3      0.160000
     57 H11         2.3490    2.8350    0.9870 h1        1 2V3      0.071700
     58 H12         3.9650    3.5050    0.5010 h1        1 2V3      0.071700
     59 H13         4.8290    2.2290    2.1830 ho        1 2V3      0.417000
     60 H14         1.1370    1.4510    4.3740 h1        1 2V3      0.083367
     61 H15        -0.6910    1.3160    4.4610 h1        1 2V3      0.083367
     62 H16         0.3370   -0.1980    4.4920 h1        1 2V3      0.083367
     63 H17        11.5660    6.0050   -0.5600 hc        1 2V3      0.091700
     64 H18        10.3510    7.7200   -2.9160 hc        1 2V3      0.079950
     65 H19        12.1120    7.6400   -2.4210 hc        1 2V3      0.079950
     66 H20         9.7260    8.5710   -0.5670 hc        1 2V3      0.079950
     67 H21        11.4860    8.4920   -0.0680 hc        1 2V3      0.079950
     68 H22        -3.9090   -1.1750    1.1430 ha        1 2V3      0.170000
     69 H23        -4.6210   -3.3270    0.1850 ha        1 2V3      0.167000
     70 H24        -2.3730   -2.2590   -3.4500 h4        1 2V3      0.050100
     71 H25        -5.5960   -4.6570   -1.0240 h1        1 2V3      0.056450
     72 H26        -4.0270   -5.5850   -0.8390 h1        1 2V3      0.056450
     73 H27        -5.5820   -7.1440   -1.6670 h1        1 2V3      0.053950
     74 H28        -6.3770   -5.9570   -2.8030 h1        1 2V3      0.053950
     75 H30        -3.4120   -6.1270   -5.1010 h1        1 2V3      0.053950
     76 H31        -5.0490   -5.3400   -4.9180 h1        1 2V3      0.053950
     77 H32        -3.5280   -3.6670   -4.3540 h1        1 2V3      0.056450
     78 H33        -2.3860   -4.7940   -3.4670 h1        1 2V3      0.056450
     79 H34        -5.3010   -8.7230   -3.3010 h1        1 2V3      0.040700
     80 H35        -6.0350   -7.7210   -4.6340 h1        1 2V3      0.040700
     81 H36        -4.0110   -8.0020   -6.0280 hc        1 2V3      0.046367
     82 H37        -4.5640   -9.6110   -5.4120 hc        1 2V3      0.046367
     83 H38        -3.1190   -8.8060   -4.6690 hc        1 2V3      0.046367
     84 H72        -2.3720    1.4290   -0.8660 hn        1 2V3      0.470300
@<TRIPOS>BOND
     1    1    2 2   
     2    1    5 1   
     3    1    7 1   
     4    2    3 1   
     5    2   47 1   
     6    3    4 2   
     7    3    8 1   
     8    4    6 1   
     9    4   48 1   
    10    5    6 1   
    11    5   28 2   
    12    6   27 1   
    13    7   29 1   
    14    7   49 1   
    15    7   84 1   
    16    8    9 ar  
    17    8   13 ar  
    18    9   10 ar  
    19    9   50 1   
    20   10   11 ar  
    21   10   51 1   
    22   11   12 ar  
    23   11   52 1   
    24   12   13 ar  
    25   12   14 1   
    26   13   25 1   
    27   14   15 1   
    28   14   17 1   
    29   15   16 2   
    30   15   53 1   
    31   16   19 1   
    32   16   54 1   
    33   17   18 1   
    34   17   24 2   
    35   18   19 ar  
    36   18   23 ar  
    37   19   20 ar  
    38   20   21 ar  
    39   20   55 1   
    40   21   22 ar  
    41   21   30 1   
    42   22   23 ar  
    43   22   56 1   
    44   23   31 1   
    45   25   26 1   
    46   25   57 1   
    47   25   58 1   
    48   26   59 1   
    49   27   60 1   
    50   27   61 1   
    51   27   62 1   
    52   29   34 ar  
    53   29   38 ar  
    54   30   32 1   
    55   30   33 1   
    56   30   63 1   
    57   32   33 1   
    58   32   64 1   
    59   32   65 1   
    60   33   66 1   
    61   33   67 1   
    62   34   35 ar  
    63   34   68 1   
    64   35   36 ar  
    65   35   69 1   
    66   36   37 ar  
    67   36   39 1   
    68   37   38 ar  
    69   37   70 1   
    70   39   40 1   
    71   39   44 1   
    72   40   41 1   
    73   40   71 1   
    74   40   72 1   
    75   41   42 1   
    76   41   73 1   
    77   41   74 1   
    78   42   43 1   
    79   42   45 1   
    80   43   44 1   
    81   43   75 1   
    82   43   76 1   
    83   44   77 1   
    84   44   78 1   
    85   45   46 1   
    86   45   79 1   
    87   45   80 1   
    88   46   81 1   
    89   46   82 1   
    90   46   83 1   
@<TRIPOS>SUBSTRUCTURE
     1 2V3         1 TEMP              0 ****  ****    0 ROOT
