@<TRIPOS>MOLECULE
2V4
   39    42     1     0     0
SMALL
bcc


@<TRIPOS>ATOM
      1 OAC        -0.0960    0.4790   -0.0360 o         1 2V4     -0.491100
      2 CAS         1.1190    0.2600   -0.0150 c         1 2V4      0.584300
      3 CAX         1.9010    0.1970    1.2480 ca        1 2V4     -0.043600
      4 CAR         1.3280   -0.2610    2.4370 ca        1 2V4     -0.166600
      5 CAN        -0.0530   -0.7830    2.5370 c         1 2V4      0.596700
      6 OAB        -0.5420   -1.5910    1.7460 o         1 2V4     -0.505100
      7 CAL        -0.8080   -0.2530    3.7230 c3        1 2V4     -0.212400
      8 CAY        -0.0420   -0.3820    5.0470 c3        1 2V4      0.168800
      9 CAA        -0.7150   -1.4270    5.9360 c3        1 2V4     -0.127100
     10 OAG        -0.0420    0.8800    5.7190 oh        1 2V4     -0.597800
     11 CAM         1.4430   -0.7440    4.8850 c3        1 2V4     -0.043100
     12 CAQ         2.0680   -0.2360    3.6360 ca        1 2V4      0.016700
     13 CAK         3.3820    0.2170    3.6320 ca        1 2V4     -0.214000
     14 CAP         3.9680    0.6470    2.4270 ca        1 2V4      0.191100
     15 OAF         5.2700    1.0650    2.3680 oh        1 2V4     -0.460100
     16 CAW         3.2350    0.6410    1.2240 ca        1 2V4     -0.175600
     17 CAT         3.8500    1.0870   -0.0480 c         1 2V4      0.599300
     18 OAD         4.7590    1.9190   -0.0930 o         1 2V4     -0.471100
     19 CAV         3.2650    0.4650   -1.2560 ca        1 2V4     -0.160600
     20 CAU         1.9150    0.0720   -1.2490 ca        1 2V4     -0.098600
     21 CAJ         1.3210   -0.4800   -2.3830 ca        1 2V4     -0.119000
     22 CAH         2.0790   -0.6670   -3.5420 ca        1 2V4     -0.079000
     23 CAI         3.4180   -0.3020   -3.5730 ca        1 2V4     -0.204000
     24 CAO         4.0130    0.2670   -2.4310 ca        1 2V4      0.169100
     25 OAE         5.3360    0.6260   -2.4060 oh        1 2V4     -0.466100
     26 H1         -1.7970   -0.7790    3.7970 hc        1 2V4      0.084700
     27 H2         -1.0150    0.8340    3.5210 hc        1 2V4      0.084700
     28 H3         -0.1550   -1.5220    6.8970 hc        1 2V4      0.049033
     29 H4         -1.7640   -1.1210    6.1640 hc        1 2V4      0.049033
     30 H5         -0.7330   -2.4170    5.4230 hc        1 2V4      0.049033
     31 H6         -0.9620    1.1050    5.9000 ho        1 2V4      0.404000
     32 H7          1.5400   -1.8650    4.8940 hc        1 2V4      0.075200
     33 H8          1.9930   -0.3450    5.7810 hc        1 2V4      0.075200
     34 H9          3.9640    0.2450    4.5650 ha        1 2V4      0.146000
     35 H10         5.6300    1.0650    3.2690 ho        1 2V4      0.424000
     36 H11         0.2570   -0.7610   -2.3550 ha        1 2V4      0.161000
     37 H12         1.6090   -1.1070   -4.4360 ha        1 2V4      0.143000
     38 H13         4.0160   -0.4510   -4.4840 ha        1 2V4      0.141000
     39 H14         5.7040    0.4820   -3.2920 ho        1 2V4      0.422000
@<TRIPOS>BOND
     1    1    2 2   
     2    2    3 1   
     3    2   20 1   
     4    3    4 ar  
     5    3   16 ar  
     6    4    5 1   
     7    4   12 ar  
     8    5    6 2   
     9    5    7 1   
    10    7    8 1   
    11    7   26 1   
    12    7   27 1   
    13    8    9 1   
    14    8   10 1   
    15    8   11 1   
    16    9   28 1   
    17    9   29 1   
    18    9   30 1   
    19   10   31 1   
    20   11   12 1   
    21   11   32 1   
    22   11   33 1   
    23   12   13 ar  
    24   13   14 ar  
    25   13   34 1   
    26   14   15 1   
    27   14   16 ar  
    28   15   35 1   
    29   16   17 1   
    30   17   18 2   
    31   17   19 1   
    32   19   20 ar  
    33   19   24 ar  
    34   20   21 ar  
    35   21   22 ar  
    36   21   36 1   
    37   22   23 ar  
    38   22   37 1   
    39   23   24 ar  
    40   23   38 1   
    41   24   25 1   
    42   25   39 1   
@<TRIPOS>SUBSTRUCTURE
     1 2V4         1 TEMP              0 ****  ****    0 ROOT
