@<TRIPOS>MOLECULE
2V4
   39    42     1     0     0
SMALL
bcc


@<TRIPOS>ATOM
      1 OAC        -0.0990    0.4410   -0.0480 o         1 2V4     -0.491100
      2 CAS         1.1180    0.2390   -0.0210 c         1 2V4      0.584300
      3 CAX         1.8960    0.1930    1.2460 ca        1 2V4     -0.043600
      4 CAR         1.3240   -0.2660    2.4340 ca        1 2V4     -0.166600
      5 CAN        -0.0500   -0.8070    2.5320 c         1 2V4      0.596700
      6 OAB        -0.5250   -1.6250    1.7430 o         1 2V4     -0.505100
      7 CAL        -0.8170   -0.2810    3.7120 c3        1 2V4     -0.212400
      8 CAY        -0.0550   -0.3940    5.0390 c3        1 2V4      0.168800
      9 CAA        -0.7170   -1.4440    5.9300 c3        1 2V4     -0.127100
     10 OAG        -0.0750    0.8710    5.7060 oh        1 2V4     -0.597800
     11 CAM         1.4360   -0.7350    4.8860 c3        1 2V4     -0.043100
     12 CAQ         2.0580   -0.2250    3.6370 ca        1 2V4      0.016700
     13 CAK         3.3660    0.2460    3.6360 ca        1 2V4     -0.214000
     14 CAP         3.9510    0.6780    2.4320 ca        1 2V4      0.191100
     15 OAF         5.2470    1.1140    2.3760 oh        1 2V4     -0.460100
     16 CAW         3.2240    0.6560    1.2260 ca        1 2V4     -0.175600
     17 CAT         3.8380    1.1040   -0.0460 c         1 2V4      0.599300
     18 OAD         4.7360    1.9480   -0.0920 o         1 2V4     -0.471100
     19 CAV         3.2670    0.4680   -1.2540 ca        1 2V4     -0.160600
     20 CAU         1.9230    0.0560   -1.2500 ca        1 2V4     -0.098600
     21 CAJ         1.3410   -0.5100   -2.3840 ca        1 2V4     -0.119000
     22 CAH         2.1060   -0.6940   -3.5390 ca        1 2V4     -0.079000
     23 CAI         3.4400   -0.3100   -3.5660 ca        1 2V4     -0.204000
     24 CAO         4.0230    0.2740   -2.4250 ca        1 2V4      0.169100
     25 OAE         5.3400    0.6520   -2.3960 oh        1 2V4     -0.466100
     26 H1         -1.0380    0.8030    3.5040 hc        1 2V4      0.084700
     27 H2         -1.7990   -0.8190    3.7840 hc        1 2V4      0.084700
     28 H3         -0.1610   -1.5270    6.8940 hc        1 2V4      0.049033
     29 H4         -1.7720   -1.1520    6.1530 hc        1 2V4      0.049033
     30 H5         -0.7200   -2.4370    5.4210 hc        1 2V4      0.049033
     31 H6         -0.9990    1.0840    5.8830 ho        1 2V4      0.404000
     32 H7          1.9750   -0.3240    5.7820 hc        1 2V4      0.075200
     33 H8          1.5480   -1.8540    4.9010 hc        1 2V4      0.075200
     34 H9          3.9440    0.2870    4.5710 ha        1 2V4      0.146000
     35 H10         5.6040    1.1240    3.2790 ho        1 2V4      0.424000
     36 H11         0.2810   -0.8060   -2.3590 ha        1 2V4      0.161000
     37 H12         1.6460   -1.1450   -4.4320 ha        1 2V4      0.143000
     38 H13         4.0450   -0.4550   -4.4730 ha        1 2V4      0.141000
     39 H14         5.7140    0.5080   -3.2790 ho        1 2V4      0.422000
@<TRIPOS>BOND
     1    1    2 2   
     2    2    3 1   
     3    2   20 1   
     4    3    4 ar  
     5    3   16 ar  
     6    4    5 1   
     7    4   12 ar  
     8    5    6 2   
     9    5    7 1   
    10    7    8 1   
    11    7   26 1   
    12    7   27 1   
    13    8    9 1   
    14    8   10 1   
    15    8   11 1   
    16    9   28 1   
    17    9   29 1   
    18    9   30 1   
    19   10   31 1   
    20   11   12 1   
    21   11   32 1   
    22   11   33 1   
    23   12   13 ar  
    24   13   14 ar  
    25   13   34 1   
    26   14   15 1   
    27   14   16 ar  
    28   15   35 1   
    29   16   17 1   
    30   17   18 2   
    31   17   19 1   
    32   19   20 ar  
    33   19   24 ar  
    34   20   21 ar  
    35   21   22 ar  
    36   21   36 1   
    37   22   23 ar  
    38   22   37 1   
    39   23   24 ar  
    40   23   38 1   
    41   24   25 1   
    42   25   39 1   
@<TRIPOS>SUBSTRUCTURE
     1 2V4         1 TEMP              0 ****  ****    0 ROOT
