@<TRIPOS>MOLECULE
2V6
   34    36     1     0     0
SMALL
bcc


@<TRIPOS>ATOM
      1 F8         -0.0990   -0.2160   -0.3340 f         1 2V6     -0.106400
      2 C5          1.2200    0.0600   -0.2630 ca        1 2V6      0.244900
      3 C6          1.9940   -0.5920    0.7070 ca        1 2V6     -0.248500
      4 C4          1.7960    0.9900   -1.1540 ca        1 2V6     -0.288300
      5 C7          0.9470    1.7030   -2.1960 c3        1 2V6      0.708200
      6 F3          0.4060    2.8870   -1.7560 f         1 2V6     -0.225967
      7 F2          1.6220    2.0410   -3.3420 f         1 2V6     -0.225967
      8 F1         -0.1310    0.9790   -2.6410 f         1 2V6     -0.225967
      9 C3          3.1760    1.2510   -1.0430 ca        1 2V6      0.244900
     10 F7          3.7680    2.1350   -1.8750 f         1 2V6     -0.106400
     11 C2          3.9640    0.6060   -0.0770 ca        1 2V6     -0.248500
     12 C1          3.3770   -0.3130    0.8130 ca        1 2V6      0.236600
     13 N1          4.0960   -0.9350    1.8450 nu        1 2V6     -0.623000
     14 C8          5.4930   -0.8040    1.9600 cc        1 2V6      0.259300
     15 C9          6.1270    0.4180    2.1640 cd        1 2V6     -0.309300
     16 C10         7.5580    0.4930    2.3280 cd        1 2V6      0.483600
     17 C13         8.1210    1.8670    2.5220 c3        1 2V6     -0.162400
     18 N2          6.3200   -1.9460    1.9390 na        1 2V6     -0.018800
     19 C11         7.7700   -1.7980    2.1470 cc        1 2V6      0.416500
     20 N3          8.3660   -0.5610    2.3190 nc        1 2V6     -0.616000
     21 N5          5.9960   -3.2360    1.8080 nc        1 2V6     -0.532100
     22 C12         7.2010   -3.8870    1.9150 cd        1 2V6      0.439300
     23 N4          8.3120   -3.0600    2.1210 nd        1 2V6     -0.302300
     24 C14         7.3630   -5.4070    1.8170 c3        1 2V6      0.662600
     25 F6          6.1910   -6.0950    1.6400 f         1 2V6     -0.216300
     26 F4          8.1610   -5.7950    0.7750 f         1 2V6     -0.216300
     27 F5          7.9280   -5.9590    2.9360 f         1 2V6     -0.216300
     28 H1          1.5010   -1.3130    1.3770 ha        1 2V6      0.169500
     29 H2          5.0410    0.8310   -0.0450 ha        1 2V6      0.169500
     30 H3          3.7020   -1.7960    2.1760 hn        1 2V6      0.461800
     31 H4          5.5370    1.3450    2.2170 ha        1 2V6      0.180000
     32 H5          7.8620    2.4970    1.6350 hc        1 2V6      0.071367
     33 H6          7.6650    2.3210    3.4370 hc        1 2V6      0.071367
     34 H7          9.2330    1.8580    2.6430 hc        1 2V6      0.071367
@<TRIPOS>BOND
     1    1    2 1   
     2    2    3 ar  
     3    2    4 ar  
     4    3   12 ar  
     5    3   28 1   
     6    4    5 1   
     7    4    9 ar  
     8    5    6 1   
     9    5    7 1   
    10    5    8 1   
    11    9   10 1   
    12    9   11 ar  
    13   11   12 ar  
    14   11   29 1   
    15   12   13 1   
    16   13   14 1   
    17   13   30 1   
    18   14   15 2   
    19   14   18 1   
    20   15   16 1   
    21   15   31 1   
    22   16   17 1   
    23   16   20 2   
    24   17   32 1   
    25   17   33 1   
    26   17   34 1   
    27   18   19 1   
    28   18   21 1   
    29   19   20 1   
    30   19   23 2   
    31   21   22 2   
    32   22   23 1   
    33   22   24 1   
    34   24   25 1   
    35   24   26 1   
    36   24   27 1   
@<TRIPOS>SUBSTRUCTURE
     1 2V6         1 TEMP              0 ****  ****    0 ROOT
