@<TRIPOS>MOLECULE
2V6
   34    36     1     0     0
SMALL
bcc


@<TRIPOS>ATOM
      1 F8         -0.0830   -0.2010   -0.3920 f         1 2V6     -0.106400
      2 C5          1.2360    0.0710   -0.3060 ca        1 2V6      0.244900
      3 C6          1.9970   -0.5810    0.6740 ca        1 2V6     -0.248500
      4 C4          1.8260    0.9960   -1.1930 ca        1 2V6     -0.288300
      5 C7          0.9910    1.7090   -2.2470 c3        1 2V6      0.708200
      6 F3          0.4480    2.8950   -1.8170 f         1 2V6     -0.225967
      7 F2          1.6810    2.0430   -3.3860 f         1 2V6     -0.225967
      8 F1         -0.0830    0.9870   -2.7030 f         1 2V6     -0.225967
      9 C3          3.2050    1.2530   -1.0670 ca        1 2V6      0.244900
     10 F7          3.8100    2.1310   -1.8950 f         1 2V6     -0.106400
     11 C2          3.9800    0.6070   -0.0900 ca        1 2V6     -0.248500
     12 C1          3.3790   -0.3070    0.7960 ca        1 2V6      0.236600
     13 N1          4.0830   -0.9290    1.8370 nh        1 2V6     -0.623000
     14 C8          5.4800   -0.8030    1.9680 cc        1 2V6      0.259300
     15 C9          6.1160    0.4170    2.1770 cd        1 2V6     -0.309300
     16 C10         7.5460    0.4870    2.3560 cd        1 2V6      0.483600
     17 C13         8.1120    1.8590    2.5540 c3        1 2V6     -0.162400
     18 N2          6.3030   -1.9480    1.9580 na        1 2V6     -0.018800
     19 C11         7.7500   -1.8060    2.1810 cc        1 2V6      0.416500
     20 N3          8.3500   -0.5700    2.3590 nc        1 2V6     -0.616000
     21 N5          5.9750   -3.2370    1.8250 nc        1 2V6     -0.532100
     22 C12         7.1760   -3.8930    1.9470 cd        1 2V6      0.439300
     23 N4          8.2880   -3.0700    2.1640 nd        1 2V6     -0.302300
     24 C14         7.3330   -5.4140    1.8540 c3        1 2V6      0.662600
     25 F6          6.1610   -6.0970    1.6650 f         1 2V6     -0.216300
     26 F4          8.1410   -5.8060    0.8200 f         1 2V6     -0.216300
     27 F5          7.8850   -5.9650    2.9790 f         1 2V6     -0.216300
     28 H1          1.4930   -1.2980    1.3410 ha        1 2V6      0.169500
     29 H2          5.0570    0.8280   -0.0460 ha        1 2V6      0.169500
     30 H3          3.6830   -1.7870    2.1670 hn        1 2V6      0.461800
     31 H4          5.5300    1.3470    2.2210 ha        1 2V6      0.180000
     32 H5          7.6470    2.3170    3.4620 hc        1 2V6      0.071367
     33 H6          7.8660    2.4870    1.6630 hc        1 2V6      0.071367
     34 H7          9.2220    1.8450    2.6880 hc        1 2V6      0.071367
@<TRIPOS>BOND
     1    1    2 1   
     2    2    3 ar  
     3    2    4 ar  
     4    3   12 ar  
     5    3   28 1   
     6    4    5 1   
     7    4    9 ar  
     8    5    6 1   
     9    5    7 1   
    10    5    8 1   
    11    9   10 1   
    12    9   11 ar  
    13   11   12 ar  
    14   11   29 1   
    15   12   13 1   
    16   13   14 1   
    17   13   30 1   
    18   14   15 2   
    19   14   18 1   
    20   15   16 1   
    21   15   31 1   
    22   16   17 1   
    23   16   20 2   
    24   17   32 1   
    25   17   33 1   
    26   17   34 1   
    27   18   19 1   
    28   18   21 1   
    29   19   20 1   
    30   19   23 2   
    31   21   22 2   
    32   22   23 1   
    33   22   24 1   
    34   24   25 1   
    35   24   26 1   
    36   24   27 1   
@<TRIPOS>SUBSTRUCTURE
     1 2V6         1 TEMP              0 ****  ****    0 ROOT
