@<TRIPOS>MOLECULE
2V6
   35    37     1     0     0
SMALL
bcc


@<TRIPOS>ATOM
      1 F8          1.5070   -1.9320   -1.1520 f         1 2V6     -0.068400
      2 C5          2.1200   -0.8660   -0.6090 ca        1 2V6      0.246400
      3 C6          2.7690   -1.0230    0.6370 ca        1 2V6     -0.175500
      4 C4          2.1160    0.3800   -1.2660 ca        1 2V6     -0.216300
      5 C7          1.4160    0.5460   -2.6250 c3        1 2V6      0.705200
      6 F3          0.8820    1.7930   -2.8130 f         1 2V6     -0.203300
      7 F2          2.2600    0.3460   -3.6860 f         1 2V6     -0.203300
      8 F1          0.3760   -0.3230   -2.8150 f         1 2V6     -0.203300
      9 C3          2.7780    1.4740   -0.6700 ca        1 2V6      0.246400
     10 F7          2.8000    2.6740   -1.2750 f         1 2V6     -0.068400
     11 C2          3.4290    1.3310    0.5720 ca        1 2V6     -0.175500
     12 C1          3.4100    0.0810    1.2040 ca        1 2V6      0.029600
     13 N1          4.0680   -0.0630    2.5150 n4        1 2V6     -0.515800
     14 C8          5.5330   -0.2550    2.3960 cc        1 2V6      0.089300
     15 C9          6.4260    0.7700    2.6520 cd        1 2V6     -0.227300
     16 C10         7.8550    0.5230    2.5200 cd        1 2V6      0.486600
     17 C13         8.7460    1.6870    2.8200 c3        1 2V6     -0.173400
     18 N2          6.0250   -1.4980    2.0160 na        1 2V6     -0.013800
     19 C11         7.4960   -1.6820    1.9010 cc        1 2V6      0.436500
     20 N3          8.3710   -0.6430    2.1590 nc        1 2V6     -0.550000
     21 N5          5.3840   -2.6370    1.7310 nc        1 2V6     -0.555100
     22 C12         6.4010   -3.5140    1.4400 cd        1 2V6      0.478300
     23 N4          7.6950   -2.9820    1.5290 nd        1 2V6     -0.250300
     24 C14         6.1790   -4.9890    1.0430 c3        1 2V6      0.665600
     25 F6          4.8600   -5.3400    0.9570 f         1 2V6     -0.197967
     26 F4          6.7210   -5.2870   -0.1750 f         1 2V6     -0.197967
     27 F5          6.7360   -5.8550    1.9400 f         1 2V6     -0.197967
     28 H1          2.7530   -2.0210    1.1130 ha        1 2V6      0.190500
     29 H2          3.9330    2.2110    1.0050 ha        1 2V6      0.190500
     30 H3          3.9030    0.7920    3.0680 hn        1 2V6      0.484300
     31 H4          6.1010    1.7770    2.9560 ha        1 2V6      0.187000
     32 H5          8.4960    2.5300    2.1270 hc        1 2V6      0.090367
     33 H6          8.5780    2.0170    3.8760 hc        1 2V6      0.090367
     34 H7          9.8300    1.4340    2.6950 hc        1 2V6      0.090367
     35 H12         3.6520   -0.8700    3.0120 hn        1 2V6      0.484300
@<TRIPOS>BOND
     1    1    2 1   
     2    2    3 ar  
     3    2    4 ar  
     4    3   12 ar  
     5    3   28 1   
     6    4    5 1   
     7    4    9 ar  
     8    5    6 1   
     9    5    7 1   
    10    5    8 1   
    11    9   10 1   
    12    9   11 ar  
    13   11   12 ar  
    14   11   29 1   
    15   12   13 1   
    16   13   14 1   
    17   13   30 1   
    18   13   35 1   
    19   14   15 2   
    20   14   18 1   
    21   15   16 1   
    22   15   31 1   
    23   16   17 1   
    24   16   20 2   
    25   17   32 1   
    26   17   33 1   
    27   17   34 1   
    28   18   19 1   
    29   18   21 1   
    30   19   20 1   
    31   19   23 2   
    32   21   22 2   
    33   22   23 1   
    34   22   24 1   
    35   24   25 1   
    36   24   26 1   
    37   24   27 1   
@<TRIPOS>SUBSTRUCTURE
     1 2V6         1 TEMP              0 ****  ****    0 ROOT
