@<TRIPOS>MOLECULE
2V7
   33    34     1     0     0
SMALL
bcc


@<TRIPOS>ATOM
      1 C14         0.0580    0.2410   -0.1610 c3        1 2V7     -0.132100
      2 C13         1.4380   -0.3640    0.0070 c3        1 2V7      0.109100
      3 O03         1.3940   -1.7880   -0.0380 oh        1 2V7     -0.615800
      4 C11         2.0320    0.0070    1.3860 c3        1 2V7      0.196400
      5 O02         1.4700   -0.7990    2.4040 oh        1 2V7     -0.587800
      6 C09         3.5320   -0.0700    1.3720 ca        1 2V7     -0.127300
      7 C10         4.2910    1.0300    1.6990 ca        1 2V7     -0.089000
      8 C05         5.7110    0.9600    1.6960 ca        1 2V7     -0.070000
      9 C06         6.5110    2.0850    2.0270 ca        1 2V7     -0.083000
     10 C01         7.8820    2.0050    2.0230 ca        1 2V7     -0.186000
     11 C02         8.5100    0.7780    1.6810 ca        1 2V7      0.124100
     12 O01         9.8810    0.6020    1.6450 os        1 2V7     -0.327900
     13 C12        10.6720    1.7280    2.0030 c3        1 2V7      0.114700
     14 C03         7.7600   -0.3410    1.3520 ca        1 2V7     -0.160000
     15 C04         6.3460   -0.2630    1.3560 ca        1 2V7      0.000000
     16 C07         5.5390   -1.3880    1.0250 ca        1 2V7     -0.129000
     17 C08         4.1710   -1.2930    1.0330 ca        1 2V7     -0.105000
     18 H1         -0.3980   -0.0890   -1.1260 hc        1 2V7      0.048367
     19 H2          0.1260    1.3540   -0.1610 hc        1 2V7      0.048367
     20 H3         -0.6040   -0.0810    0.6790 hc        1 2V7      0.048367
     21 H4          2.1240   -0.0040   -0.8090 h1        1 2V7      0.048700
     22 H5          0.7680   -2.0350   -0.7280 ho        1 2V7      0.410000
     23 H6          1.7000    1.0520    1.6520 h1        1 2V7      0.076700
     24 H7          1.6770   -1.7200    2.1910 ho        1 2V7      0.417000
     25 H8          3.8140    1.9830    1.9740 ha        1 2V7      0.131000
     26 H9          6.0110    3.0290    2.2920 ha        1 2V7      0.133000
     27 H10         8.4890    2.8840    2.2820 ha        1 2V7      0.138000
     28 H11        10.5010    2.5730    1.2940 h1        1 2V7      0.043700
     29 H12        10.4580    2.0460    3.0520 h1        1 2V7      0.043700
     30 H13        11.7210    1.3460    1.9140 h1        1 2V7      0.043700
     31 H14         8.2570   -1.2850    1.0900 ha        1 2V7      0.151000
     32 H15         6.0370   -2.3340    0.7630 ha        1 2V7      0.136000
     33 H16         3.5390   -2.1570    0.7660 ha        1 2V7      0.150000
@<TRIPOS>BOND
     1    1    2 1   
     2    1   18 1   
     3    1   19 1   
     4    1   20 1   
     5    2    3 1   
     6    2    4 1   
     7    2   21 1   
     8    3   22 1   
     9    4    5 1   
    10    4    6 1   
    11    4   23 1   
    12    5   24 1   
    13    6    7 ar  
    14    6   17 ar  
    15    7    8 ar  
    16    7   25 1   
    17    8    9 ar  
    18    8   15 ar  
    19    9   10 ar  
    20    9   26 1   
    21   10   11 ar  
    22   10   27 1   
    23   11   12 1   
    24   11   14 ar  
    25   12   13 1   
    26   13   28 1   
    27   13   29 1   
    28   13   30 1   
    29   14   15 ar  
    30   14   31 1   
    31   15   16 ar  
    32   16   17 ar  
    33   16   32 1   
    34   17   33 1   
@<TRIPOS>SUBSTRUCTURE
     1 2V7         1 TEMP              0 ****  ****    0 ROOT
