@<TRIPOS>MOLECULE
2V7
   33    34     1     0     0
SMALL
bcc


@<TRIPOS>ATOM
      1 C14         0.0550    0.2560   -0.1450 c3        1 2V7     -0.132100
      2 C13         1.4330   -0.3550    0.0210 c3        1 2V7      0.109100
      3 O03         1.3850   -1.7780   -0.0200 oh        1 2V7     -0.615800
      4 C11         2.0330    0.0180    1.3960 c3        1 2V7      0.196400
      5 O02         1.4720   -0.7830    2.4180 oh        1 2V7     -0.587800
      6 C09         3.5330   -0.0650    1.3780 ca        1 2V7     -0.127300
      7 C10         4.2970    1.0330    1.7000 ca        1 2V7     -0.089000
      8 C05         5.7170    0.9580    1.6920 ca        1 2V7     -0.070000
      9 C06         6.5220    2.0810    2.0200 ca        1 2V7     -0.083000
     10 C01         7.8930    1.9960    2.0110 ca        1 2V7     -0.186000
     11 C02         8.5150    0.7660    1.6690 ca        1 2V7      0.124100
     12 O01         9.8860    0.5850    1.6290 os        1 2V7     -0.327900
     13 C12        10.6820    1.7080    1.9830 c3        1 2V7      0.114700
     14 C03         7.7600   -0.3500    1.3440 ca        1 2V7     -0.160000
     15 C04         6.3460   -0.2670    1.3520 ca        1 2V7      0.000000
     16 C07         5.5340   -1.3900    1.0260 ca        1 2V7     -0.129000
     17 C08         4.1670   -1.2900    1.0380 ca        1 2V7     -0.105000
     18 H1          0.1270    1.3690   -0.1480 hc        1 2V7      0.048367
     19 H2         -0.6050   -0.0620    0.6990 hc        1 2V7      0.048367
     20 H3         -0.4050   -0.0750   -1.1070 hc        1 2V7      0.048367
     21 H4          2.1190    0.0010   -0.7990 h1        1 2V7      0.048700
     22 H5          0.7540   -2.0250   -0.7070 ho        1 2V7      0.410000
     23 H6          1.7060    1.0660    1.6610 h1        1 2V7      0.076700
     24 H7          1.6760   -1.7050    2.2070 ho        1 2V7      0.417000
     25 H8          3.8250    1.9890    1.9750 ha        1 2V7      0.131000
     26 H9          6.0260    3.0280    2.2840 ha        1 2V7      0.133000
     27 H10         8.5040    2.8730    2.2670 ha        1 2V7      0.138000
     28 H11        10.4720    2.0290    3.0320 h1        1 2V7      0.043700
     29 H12        11.7300    1.3230    1.8910 h1        1 2V7      0.043700
     30 H13        10.5120    2.5540    1.2730 h1        1 2V7      0.043700
     31 H14         8.2530   -1.2970    1.0820 ha        1 2V7      0.151000
     32 H15         6.0280   -2.3380    0.7640 ha        1 2V7      0.136000
     33 H16         3.5310   -2.1520    0.7750 ha        1 2V7      0.150000
@<TRIPOS>BOND
     1    1    2 1   
     2    1   18 1   
     3    1   19 1   
     4    1   20 1   
     5    2    3 1   
     6    2    4 1   
     7    2   21 1   
     8    3   22 1   
     9    4    5 1   
    10    4    6 1   
    11    4   23 1   
    12    5   24 1   
    13    6    7 ar  
    14    6   17 ar  
    15    7    8 ar  
    16    7   25 1   
    17    8    9 ar  
    18    8   15 ar  
    19    9   10 ar  
    20    9   26 1   
    21   10   11 ar  
    22   10   27 1   
    23   11   12 1   
    24   11   14 ar  
    25   12   13 1   
    26   13   28 1   
    27   13   29 1   
    28   13   30 1   
    29   14   15 ar  
    30   14   31 1   
    31   15   16 ar  
    32   16   17 ar  
    33   16   32 1   
    34   17   33 1   
@<TRIPOS>SUBSTRUCTURE
     1 2V7         1 TEMP              0 ****  ****    0 ROOT
