@<TRIPOS>MOLECULE
2V8
   47    50     1     0     0
SMALL
bcc


@<TRIPOS>ATOM
      1 CL1         0.0990   -0.1270    0.0360 cl        1 2V8     -0.108400
      2 C2          1.8000   -0.0600   -0.0480 ca        1 2V8      0.013400
      3 C3          2.5450   -0.0570    1.1310 ca        1 2V8     -0.105000
      4 C5          3.9540   -0.0050    1.0720 ca        1 2V8      0.027800
      5 C6          4.5960    0.0480   -0.1930 ca        1 2V8     -0.067300
      6 C7          3.8150    0.0460   -1.3530 ca        1 2V8     -0.131000
      7 C9          2.4260   -0.0080   -1.2940 ca        1 2V8     -0.124000
      8 C11         6.0740    0.1120   -0.3040 c3        1 2V8     -0.065800
      9 N15         4.7030   -0.0100    2.2680 na        1 2V8     -0.156000
     10 C16         5.1430   -1.1510    2.9810 cc        1 2V8      0.430000
     11 N17         5.8300   -0.7810    4.0960 nd        1 2V8     -0.639000
     12 C18         5.8140    0.6050    4.1450 cd        1 2V8      0.346800
     13 C19         5.0960    1.1180    3.0310 cc        1 2V8     -0.186600
     14 C20         4.7470    2.4970    2.7510 ca        1 2V8      0.030000
     15 C21         4.6630    3.0060    1.4480 ca        1 2V8     -0.138000
     16 C23         4.3230    4.3450    1.2450 ca        1 2V8      0.011400
     17 C24         4.0710    5.1990    2.3190 ca        1 2V8     -0.142000
     18 C26         4.1670    4.6920    3.6150 ca        1 2V8     -0.130000
     19 C28         4.4970    3.3590    3.8370 ca        1 2V8     -0.100000
     20 CL2         4.2180    4.9490   -0.3520 cl        1 2V8     -0.142400
     21 C31         6.5080    1.3920    5.2590 c         1 2V8      0.841100
     22 O32         7.7450    1.5740    5.1490 o         1 2V8     -0.806800
     23 O33         5.7780    1.8130    6.1970 o         1 2V8     -0.806800
     24 C35         4.8580   -2.5410    2.6210 ca        1 2V8     -0.088500
     25 C36         4.6000   -3.4540    3.6570 ca        1 2V8     -0.093000
     26 C38         4.3400   -4.7970    3.3700 ca        1 2V8     -0.090300
     27 C39         4.3350   -5.2330    2.0410 ca        1 2V8     -0.138000
     28 C41         4.5950   -4.3310    1.0120 ca        1 2V8     -0.137000
     29 C43         4.8600   -2.9930    1.2960 ca        1 2V8     -0.132000
     30 C45         4.0870   -5.7500    4.4760 c3        1 2V8     -0.048800
     31 H1          2.0350   -0.0910    2.1080 ha        1 2V8      0.166000
     32 H2          4.3110    0.0930   -2.3350 ha        1 2V8      0.134000
     33 H3          1.8320   -0.0060   -2.2200 ha        1 2V8      0.140000
     34 H4          6.5440   -0.7970    0.1500 hc        1 2V8      0.057700
     35 H5          6.4730    1.0050    0.2430 hc        1 2V8      0.057700
     36 H6          6.3950    0.1790   -1.3730 hc        1 2V8      0.057700
     37 H7          4.8700    2.3610    0.5820 ha        1 2V8      0.140000
     38 H8          3.8070    6.2520    2.1490 ha        1 2V8      0.129000
     39 H9          3.9840    5.3540    4.4740 ha        1 2V8      0.131000
     40 H10         4.5940    2.9680    4.8720 ha        1 2V8      0.212000
     41 H12         4.6110   -3.1100    4.7040 ha        1 2V8      0.161000
     42 H13         4.1270   -6.2870    1.8100 ha        1 2V8      0.119000
     43 H14         4.5950   -4.6750   -0.0320 ha        1 2V8      0.120000
     44 H15         5.0710   -2.2950    0.4730 ha        1 2V8      0.136000
     45 H16         5.0570   -6.0660    4.9370 hc        1 2V8      0.039700
     46 H17         3.5580   -6.6640    4.1090 hc        1 2V8      0.039700
     47 H18         3.4630   -5.2750    5.2730 hc        1 2V8      0.039700
@<TRIPOS>BOND
     1    1    2 1   
     2    2    3 ar  
     3    2    7 ar  
     4    3    4 ar  
     5    3   31 1   
     6    4    5 ar  
     7    4    9 1   
     8    5    6 ar  
     9    5    8 1   
    10    6    7 ar  
    11    6   32 1   
    12    7   33 1   
    13    8   34 1   
    14    8   35 1   
    15    8   36 1   
    16    9   10 1   
    17    9   13 1   
    18   10   11 2   
    19   10   24 1   
    20   11   12 1   
    21   12   13 2   
    22   12   21 1   
    23   13   14 1   
    24   14   15 ar  
    25   14   19 ar  
    26   15   16 ar  
    27   15   37 1   
    28   16   17 ar  
    29   16   20 1   
    30   17   18 ar  
    31   17   38 1   
    32   18   19 ar  
    33   18   39 1   
    34   19   40 1   
    35   21   22 1   
    36   21   23 1   
    37   24   25 ar  
    38   24   29 ar  
    39   25   26 ar  
    40   25   41 1   
    41   26   27 ar  
    42   26   30 1   
    43   27   28 ar  
    44   27   42 1   
    45   28   29 ar  
    46   28   43 1   
    47   29   44 1   
    48   30   45 1   
    49   30   46 1   
    50   30   47 1   
@<TRIPOS>SUBSTRUCTURE
     1 2V8         1 TEMP              0 ****  ****    0 ROOT
