@<TRIPOS>MOLECULE
2V8
   47    50     1     0     0
SMALL
bcc


@<TRIPOS>ATOM
      1 Cl1         0.0830   -0.1350    0.0720 cl        1 2V8     -0.108400
      2 C2          1.7830   -0.0650   -0.0260 ca        1 2V8      0.013400
      3 C3          2.5380   -0.0600    1.1470 ca        1 2V8     -0.105000
      4 C5          3.9450   -0.0060    1.0760 ca        1 2V8      0.027800
      5 C6          4.5780    0.0480   -0.1940 ca        1 2V8     -0.067300
      6 C7          3.7870    0.0440   -1.3480 ca        1 2V8     -0.131000
      7 C9          2.3990   -0.0130   -1.2780 ca        1 2V8     -0.124000
      8 C11         6.0540    0.1140   -0.3180 c3        1 2V8     -0.065800
      9 N15         4.7050   -0.0090    2.2650 na        1 2V8     -0.156000
     10 C16         5.1520   -1.1490    2.9750 cc        1 2V8      0.430000
     11 N17         5.8470   -0.7790    4.0850 nd        1 2V8     -0.639000
     12 C18         5.8300    0.6070    4.1340 cd        1 2V8      0.346800
     13 C19         5.1010    1.1200    3.0260 cc        1 2V8     -0.186600
     14 C20         4.7490    2.4980    2.7480 ca        1 2V8      0.030000
     15 C21         4.6530    3.0070    1.4460 ca        1 2V8     -0.138000
     16 C23         4.3090    4.3450    1.2450 ca        1 2V8      0.011400
     17 C24         4.0640    5.1990    2.3210 ca        1 2V8     -0.142000
     18 C26         4.1710    4.6920    3.6160 ca        1 2V8     -0.130000
     19 C28         4.5060    3.3590    3.8360 ca        1 2V8     -0.100000
     20 Cl2         4.1890    4.9480   -0.3510 cl        1 2V8     -0.142400
     21 C31         6.5320    1.3970    5.2410 c         1 2V8      0.841100
     22 O32         7.7670    1.5800    5.1220 o         1 2V8     -0.806800
     23 O33         5.8080    1.8170    6.1860 o         1 2V8     -0.806800
     24 C35         4.8670   -2.5400    2.6190 ca        1 2V8     -0.088500
     25 C36         4.6190   -3.4530    3.6560 ca        1 2V8     -0.093000
     26 C38         4.3580   -4.7970    3.3730 ca        1 2V8     -0.090300
     27 C39         4.3430   -5.2330    2.0430 ca        1 2V8     -0.138000
     28 C41         4.5930   -4.3310    1.0120 ca        1 2V8     -0.137000
     29 C43         4.8580   -2.9920    1.2940 ca        1 2V8     -0.132000
     30 C45         4.1160   -5.7500    4.4810 c3        1 2V8     -0.048800
     31 H1          2.0350   -0.0950    2.1280 ha        1 2V8      0.166000
     32 H2          4.2750    0.0910   -2.3340 ha        1 2V8      0.134000
     33 H3          1.7970   -0.0120   -2.1980 ha        1 2V8      0.140000
     34 H4          6.5290   -0.7940    0.1340 hc        1 2V8      0.057700
     35 H5          6.4560    1.0070    0.2260 hc        1 2V8      0.057700
     36 H6          6.3660    0.1810   -1.3880 hc        1 2V8      0.057700
     37 H7          4.8540    2.3620    0.5780 ha        1 2V8      0.140000
     38 H8          3.7970    6.2510    2.1530 ha        1 2V8      0.129000
     39 H9          3.9950    5.3540    4.4760 ha        1 2V8      0.131000
     40 H10         4.6120    2.9690    4.8700 ha        1 2V8      0.212000
     41 H12         4.6370   -3.1090    4.7030 ha        1 2V8      0.161000
     42 H13         4.1340   -6.2880    1.8140 ha        1 2V8      0.119000
     43 H14         4.5850   -4.6760   -0.0320 ha        1 2V8      0.120000
     44 H15         5.0620   -2.2940    0.4680 ha        1 2V8      0.136000
     45 H16         5.0910   -6.0740    4.9250 hc        1 2V8      0.039700
     46 H17         3.5750   -6.6600    4.1200 hc        1 2V8      0.039700
     47 H18         3.5080   -5.2730    5.2880 hc        1 2V8      0.039700
@<TRIPOS>BOND
     1    1    2 1   
     2    2    3 ar  
     3    2    7 ar  
     4    3    4 ar  
     5    3   31 1   
     6    4    5 ar  
     7    4    9 1   
     8    5    6 ar  
     9    5    8 1   
    10    6    7 ar  
    11    6   32 1   
    12    7   33 1   
    13    8   34 1   
    14    8   35 1   
    15    8   36 1   
    16    9   10 1   
    17    9   13 1   
    18   10   11 2   
    19   10   24 1   
    20   11   12 1   
    21   12   13 2   
    22   12   21 1   
    23   13   14 1   
    24   14   15 ar  
    25   14   19 ar  
    26   15   16 ar  
    27   15   37 1   
    28   16   17 ar  
    29   16   20 1   
    30   17   18 ar  
    31   17   38 1   
    32   18   19 ar  
    33   18   39 1   
    34   19   40 1   
    35   21   22 1   
    36   21   23 1   
    37   24   25 ar  
    38   24   29 ar  
    39   25   26 ar  
    40   25   41 1   
    41   26   27 ar  
    42   26   30 1   
    43   27   28 ar  
    44   27   42 1   
    45   28   29 ar  
    46   28   43 1   
    47   29   44 1   
    48   30   45 1   
    49   30   46 1   
    50   30   47 1   
@<TRIPOS>SUBSTRUCTURE
     1 2V8         1 TEMP              0 ****  ****    0 ROOT
