@<TRIPOS>MOLECULE
2V9
   52    59     1     0     0
SMALL
bcc


@<TRIPOS>ATOM
      1 O2         -0.0880   -0.1510    0.0390 o         1 2V9     -0.480100
      2 C25         1.1390   -0.1090    0.0200 c         1 2V9      0.692100
      3 N3          2.0010   -0.1410    1.2130 nc        1 2V9     -0.610100
      4 C24         3.2410   -0.0820    0.8070 cd        1 2V9      0.518800
      5 C14         3.3790   -0.0070   -0.6750 ca        1 2V9     -0.189900
      6 C13         2.0410   -0.0180   -1.1860 ca        1 2V9     -0.164600
      7 C12         1.7990    0.0500   -2.5350 cp        1 2V9      0.034000
      8 C11         0.6260    0.0340   -3.3950 cp        1 2V9     -0.088000
      9 C10        -0.7340   -0.0560   -3.1350 ca        1 2V9     -0.055000
     10 C9         -1.6240   -0.0610   -4.2110 ca        1 2V9     -0.165000
     11 C8         -1.1650    0.0250   -5.5280 ca        1 2V9     -0.089000
     12 C7          0.1940    0.1240   -5.8270 ca        1 2V9     -0.169000
     13 C6          1.0980    0.1300   -4.7620 ca        1 2V9      0.018800
     14 N1          2.5000    0.2750   -4.7630 na        1 2V9     -0.100300
     15 C23         2.9400    0.1530   -3.4330 ca        1 2V9     -0.019200
     16 C22         4.2420    0.1140   -2.9470 ca        1 2V9     -0.004200
     17 C15         4.4680    0.0530   -1.5100 cp        1 2V9      0.007000
     18 C16         5.9090    0.0760   -1.3400 cp        1 2V9     -0.090000
     19 C17         6.7220    0.0710   -0.2150 ca        1 2V9     -0.070000
     20 C18         8.1050    0.1430   -0.3780 ca        1 2V9     -0.161000
     21 C19         8.6680    0.2400   -1.6530 ca        1 2V9     -0.095000
     22 C20         7.8820    0.2500   -2.8040 ca        1 2V9     -0.154000
     23 C21         6.4940    0.1440   -2.6650 ca        1 2V9      0.031800
     24 N2          5.4700    0.1650   -3.6400 na        1 2V9     -0.084300
     25 C2          5.6170   -0.1380   -5.0600 c3        1 2V9      0.284500
     26 C1          6.7700   -1.1040   -5.3660 c3        1 2V9     -0.103100
     27 O1          4.4340   -0.8190   -5.5500 os        1 2V9     -0.415600
     28 C5          3.4090    0.1430   -5.8740 c3        1 2V9      0.254800
     29 C4          4.1540    1.4560   -6.2260 c3        1 2V9     -0.147400
     30 C3          5.6440    1.1660   -5.9710 c3        1 2V9      0.133800
     31 O4          6.2980    2.2200   -5.3020 oh        1 2V9     -0.568800
     32 C26         6.3640    0.8840   -7.3020 c3        1 2V9      0.098400
     33 O3          6.2220    2.0620   -8.0830 oh        1 2V9     -0.612800
     34 H1          4.0990   -0.0890    1.4900 h4        1 2V9      0.046800
     35 H2         -1.0940   -0.1220   -2.0950 ha        1 2V9      0.169000
     36 H3         -2.7040   -0.1340   -4.0170 ha        1 2V9      0.138000
     37 H4         -1.8930    0.0150   -6.3540 ha        1 2V9      0.133000
     38 H5          0.5350    0.1950   -6.8680 ha        1 2V9      0.134000
     39 H6          6.2790    0.0170    0.7900 ha        1 2V9      0.134000
     40 H7          8.7580    0.1350    0.5060 ha        1 2V9      0.136000
     41 H8          9.7620    0.3190   -1.7550 ha        1 2V9      0.133000
     42 H9          8.3510    0.3720   -3.7890 ha        1 2V9      0.141000
     43 H10         6.5670   -1.6070   -6.3430 hc        1 2V9      0.064367
     44 H11         7.7340   -0.5490   -5.4290 hc        1 2V9      0.064367
     45 H12         6.8490   -1.8910   -4.5770 hc        1 2V9      0.064367
     46 H13         2.8590   -0.2890   -6.7590 h2        1 2V9      0.097700
     47 H14         3.8220    2.3180   -5.5940 hc        1 2V9      0.089200
     48 H15         3.9720    1.7170   -7.2970 hc        1 2V9      0.089200
     49 H16         6.2580    2.9830   -5.8970 ho        1 2V9      0.426000
     50 H17         5.8870    0.0140   -7.8240 h1        1 2V9      0.044200
     51 H18         7.4520    0.6780   -7.1220 h1        1 2V9      0.044200
     52 H19         6.7640    1.9400   -8.8710 ho        1 2V9      0.414000
@<TRIPOS>BOND
     1    1    2 2   
     2    2    3 1   
     3    2    6 1   
     4    3    4 2   
     5    4    5 1   
     6    4   34 1   
     7    5    6 ar  
     8    5   17 ar  
     9    6    7 ar  
    10    7    8 1   
    11    7   15 ar  
    12    8    9 ar  
    13    8   13 ar  
    14    9   10 ar  
    15    9   35 1   
    16   10   11 ar  
    17   10   36 1   
    18   11   12 ar  
    19   11   37 1   
    20   12   13 ar  
    21   12   38 1   
    22   13   14 1   
    23   14   15 1   
    24   14   28 1   
    25   15   16 ar  
    26   16   17 ar  
    27   16   24 1   
    28   17   18 1   
    29   18   19 ar  
    30   18   23 ar  
    31   19   20 ar  
    32   19   39 1   
    33   20   21 ar  
    34   20   40 1   
    35   21   22 ar  
    36   21   41 1   
    37   22   23 ar  
    38   22   42 1   
    39   23   24 1   
    40   24   25 1   
    41   25   26 1   
    42   25   27 1   
    43   25   30 1   
    44   26   43 1   
    45   26   44 1   
    46   26   45 1   
    47   27   28 1   
    48   28   29 1   
    49   28   46 1   
    50   29   30 1   
    51   29   47 1   
    52   29   48 1   
    53   30   31 1   
    54   30   32 1   
    55   31   49 1   
    56   32   33 1   
    57   32   50 1   
    58   32   51 1   
    59   33   52 1   
@<TRIPOS>SUBSTRUCTURE
     1 2V9         1 TEMP              0 ****  ****    0 ROOT
