@<TRIPOS>MOLECULE
2V9
   52    59     1     0     0
SMALL
bcc


@<TRIPOS>ATOM
      1 O2         -0.0890   -0.1540    0.0380 o         1 2V9     -0.480100
      2 C25         1.1380   -0.1120    0.0190 c         1 2V9      0.692100
      3 N3          2.0000   -0.1440    1.2120 nc        1 2V9     -0.610100
      4 C24         3.2400   -0.0860    0.8060 cd        1 2V9      0.518800
      5 C14         3.3790   -0.0090   -0.6750 ca        1 2V9     -0.189900
      6 C13         2.0400   -0.0200   -1.1860 ca        1 2V9     -0.164600
      7 C12         1.7990    0.0490   -2.5360 cp        1 2V9      0.034000
      8 C11         0.6260    0.0330   -3.3960 cp        1 2V9     -0.088000
      9 C10        -0.7340   -0.0570   -3.1360 ca        1 2V9     -0.055000
     10 C9         -1.6230   -0.0610   -4.2120 ca        1 2V9     -0.165000
     11 C8         -1.1650    0.0250   -5.5290 ca        1 2V9     -0.089000
     12 C7          0.1940    0.1240   -5.8280 ca        1 2V9     -0.170000
     13 C6          1.0980    0.1300   -4.7630 ca        1 2V9      0.018800
     14 N1          2.5000    0.2750   -4.7640 na        1 2V9     -0.100300
     15 C23         2.9400    0.1510   -3.4330 ca        1 2V9     -0.019200
     16 C22         4.2420    0.1130   -2.9470 ca        1 2V9     -0.004200
     17 C15         4.4680    0.0510   -1.5110 cp        1 2V9      0.007000
     18 C16         5.9090    0.0730   -1.3400 cp        1 2V9     -0.090000
     19 C17         6.7220    0.0670   -0.2150 ca        1 2V9     -0.070000
     20 C18         8.1040    0.1400   -0.3780 ca        1 2V9     -0.161000
     21 C19         8.6680    0.2380   -1.6520 ca        1 2V9     -0.095000
     22 C20         7.8820    0.2490   -2.8030 ca        1 2V9     -0.154000
     23 C21         6.4940    0.1420   -2.6650 ca        1 2V9      0.031800
     24 N2          5.4710    0.1640   -3.6400 na        1 2V9     -0.084300
     25 C2          5.6180   -0.1360   -5.0600 c3        1 2V9      0.284500
     26 C1          6.7710   -1.1020   -5.3680 c3        1 2V9     -0.103100
     27 O1          4.4350   -0.8170   -5.5510 os        1 2V9     -0.415600
     28 C5          3.4090    0.1440   -5.8740 c3        1 2V9      0.254800
     29 C4          4.1540    1.4580   -6.2250 c3        1 2V9     -0.147400
     30 C3          5.6440    1.1680   -5.9690 c3        1 2V9      0.133800
     31 O4          6.2960    2.2220   -5.2980 oh        1 2V9     -0.568800
     32 C26         6.3650    0.8890   -7.3010 c3        1 2V9      0.098400
     33 O3          6.2230    2.0680   -8.0790 oh        1 2V9     -0.612800
     34 H1          4.0980   -0.0930    1.4900 h4        1 2V9      0.046800
     35 H2         -1.0950   -0.1240   -2.0960 ha        1 2V9      0.169000
     36 H3         -2.7040   -0.1350   -4.0180 ha        1 2V9      0.138000
     37 H4         -1.8920    0.0160   -6.3560 ha        1 2V9      0.133000
     38 H5          0.5350    0.1960   -6.8690 ha        1 2V9      0.134000
     39 H6          6.2790    0.0130    0.7900 ha        1 2V9      0.134000
     40 H7          8.7580    0.1310    0.5070 ha        1 2V9      0.136000
     41 H8          9.7610    0.3170   -1.7540 ha        1 2V9      0.133000
     42 H9          8.3510    0.3710   -3.7880 ha        1 2V9      0.141000
     43 H10         7.7340   -0.5460   -5.4300 hc        1 2V9      0.064367
     44 H11         6.8500   -1.8900   -4.5800 hc        1 2V9      0.064367
     45 H12         6.5680   -1.6040   -6.3450 hc        1 2V9      0.064367
     46 H13         2.8600   -0.2870   -6.7600 h2        1 2V9      0.097700
     47 H14         3.8210    2.3190   -5.5920 hc        1 2V9      0.089200
     48 H15         3.9720    1.7200   -7.2950 hc        1 2V9      0.089200
     49 H16         6.2570    2.9860   -5.8930 ho        1 2V9      0.426000
     50 H17         5.8890    0.0190   -7.8240 h1        1 2V9      0.043700
     51 H18         7.4530    0.6840   -7.1200 h1        1 2V9      0.043700
     52 H19         6.7650    1.9480   -8.8680 ho        1 2V9      0.414000
@<TRIPOS>BOND
     1    1    2 2   
     2    2    3 1   
     3    2    6 1   
     4    3    4 2   
     5    4    5 1   
     6    4   34 1   
     7    5    6 ar  
     8    5   17 ar  
     9    6    7 ar  
    10    7    8 1   
    11    7   15 ar  
    12    8    9 ar  
    13    8   13 ar  
    14    9   10 ar  
    15    9   35 1   
    16   10   11 ar  
    17   10   36 1   
    18   11   12 ar  
    19   11   37 1   
    20   12   13 ar  
    21   12   38 1   
    22   13   14 1   
    23   14   15 1   
    24   14   28 1   
    25   15   16 ar  
    26   16   17 ar  
    27   16   24 1   
    28   17   18 1   
    29   18   19 ar  
    30   18   23 ar  
    31   19   20 ar  
    32   19   39 1   
    33   20   21 ar  
    34   20   40 1   
    35   21   22 ar  
    36   21   41 1   
    37   22   23 ar  
    38   22   42 1   
    39   23   24 1   
    40   24   25 1   
    41   25   26 1   
    42   25   27 1   
    43   25   30 1   
    44   26   43 1   
    45   26   44 1   
    46   26   45 1   
    47   27   28 1   
    48   28   29 1   
    49   28   46 1   
    50   29   30 1   
    51   29   47 1   
    52   29   48 1   
    53   30   31 1   
    54   30   32 1   
    55   31   49 1   
    56   32   33 1   
    57   32   50 1   
    58   32   51 1   
    59   33   52 1   
@<TRIPOS>SUBSTRUCTURE
     1 2V9         1 TEMP              0 ****  ****    0 ROOT
