@<TRIPOS>MOLECULE
2VA
   49    51     1     0     0
SMALL
bcc


@<TRIPOS>ATOM
      1 CG2         5.2210    2.9470   -1.0870 c3        1 2VA     -0.095100
      2 CB          4.4750    1.8880   -0.3030 c3        1 2VA     -0.058700
      3 CG1         5.2780    1.4470    0.9020 c3        1 2VA     -0.095100
      4 CA          3.0710    2.4010    0.0880 c3        1 2VA      0.116500
      5 N           3.0990    3.4850    1.0400 n3        1 2VA     -0.884800
      6 C           2.2400    1.1850    0.5760 c         1 2VA      0.614100
      7 O           2.0280    0.9860    1.7890 o         1 2VA     -0.615100
      8 NAZ         1.6960    0.3590   -0.3940 n         1 2VA     -0.539900
      9 C2'         0.9890   -0.8380   -0.0590 c3        1 2VA      0.075700
     10 C3'         1.6850   -2.1850   -0.4110 c3        1 2VA      0.095100
     11 O3'         2.5530   -1.9980   -1.5150 oh        1 2VA     -0.593800
     12 C4'         0.5240   -3.1260   -0.7690 c3        1 2VA      0.058100
     13 C5'         0.1330   -4.0340    0.3980 c3        1 2VA      0.119400
     14 O5'        -0.8900   -4.9300    0.0250 oh        1 2VA     -0.589800
     15 O4'        -0.6030   -2.3260   -1.1400 os        1 2VA     -0.420600
     16 C1'        -0.4010   -0.9400   -0.8010 c3        1 2VA      0.241800
     17 N9         -1.5020   -0.4540   -0.0150 na        1 2VA     -0.278000
     18 C8         -1.8950   -0.8580    1.2900 cc        1 2VA      0.410700
     19 N7         -3.0580   -0.3330    1.6900 nd        1 2VA     -0.536100
     20 C5         -3.5000    0.4460    0.6090 ca        1 2VA     -0.236200
     21 C4         -2.5420    0.3690   -0.4870 ca        1 2VA      0.474800
     22 N3         -2.6970    1.0240   -1.6760 nb        1 2VA     -0.739000
     23 C2         -3.8400    1.7490   -1.7250 ca        1 2VA      0.689900
     24 N1         -4.8160    1.9140   -0.7950 nb        1 2VA     -0.795000
     25 C6         -4.6660    1.2590    0.4080 ca        1 2VA      0.766200
     26 N6         -5.6060    1.3750    1.3950 nh        1 2VA     -0.961500
     27 HG21        6.2160    2.5510   -1.4040 hc        1 2VA      0.042700
     28 HG22        4.6450    3.2370   -1.9980 hc        1 2VA      0.042700
     29 HG23        5.3840    3.8610   -0.4660 hc        1 2VA      0.042700
     30 HB          4.3230    0.9960   -0.9750 hc        1 2VA      0.046700
     31 HG11        6.1500    0.8320    0.5730 hc        1 2VA      0.042700
     32 HG12        5.6690    2.3270    1.4670 hc        1 2VA      0.042700
     33 HG13        4.6460    0.8340    1.5910 hc        1 2VA      0.042700
     34 HA          2.5780    2.8080   -0.8480 h1        1 2VA      0.078700
     35 H           2.1650    3.7470    1.2920 hn        1 2VA      0.363300
     36 H2          3.5940    3.2160    1.8700 hn        1 2VA      0.363300
     37 HAZ         2.0400    0.4200   -1.3250 hn        1 2VA      0.325500
     38 H2'         0.8200   -0.8460    1.0620 h1        1 2VA      0.106700
     39 H3'         2.2680   -2.5650    0.4700 h1        1 2VA      0.064700
     40 H1          2.9600   -2.8530   -1.6990 ho        1 2VA      0.416000
     41 H4'         0.7530   -3.7460   -1.6800 h1        1 2VA      0.092700
     42 H5'1        0.9980   -4.6850    0.6940 h1        1 2VA      0.048200
     43 H5'2       -0.1950   -3.4130    1.2740 h1        1 2VA      0.048200
     44 H5'        -1.6190   -4.4010   -0.3290 ho        1 2VA      0.419000
     45 H1'        -0.3990   -0.3850   -1.7880 h2        1 2VA      0.121700
     46 H8         -1.2640   -1.5240    1.8910 h5        1 2VA      0.070800
     47 HC2        -4.0110    2.2980   -2.6770 h5        1 2VA      0.052100
     48 HN61       -5.4630    0.9010    2.2510 hn        1 2VA      0.450300
     49 HN62       -6.4060    1.9430    1.2700 hn        1 2VA      0.450300
@<TRIPOS>BOND
     1    1    2 1   
     2    1   27 1   
     3    1   28 1   
     4    1   29 1   
     5    2    3 1   
     6    2    4 1   
     7    2   30 1   
     8    3   31 1   
     9    3   32 1   
    10    3   33 1   
    11    4    5 1   
    12    4    6 1   
    13    4   34 1   
    14    5   35 1   
    15    5   36 1   
    16    6    7 2   
    17    6    8 1   
    18    8    9 1   
    19    8   37 1   
    20    9   10 1   
    21    9   16 1   
    22    9   38 1   
    23   10   11 1   
    24   10   12 1   
    25   10   39 1   
    26   11   40 1   
    27   12   13 1   
    28   12   15 1   
    29   12   41 1   
    30   13   14 1   
    31   13   42 1   
    32   13   43 1   
    33   14   44 1   
    34   15   16 1   
    35   16   17 1   
    36   16   45 1   
    37   17   18 1   
    38   17   21 1   
    39   18   19 2   
    40   18   46 1   
    41   19   20 1   
    42   20   21 ar  
    43   20   25 ar  
    44   21   22 ar  
    45   22   23 ar  
    46   23   24 ar  
    47   23   47 1   
    48   24   25 ar  
    49   25   26 1   
    50   26   48 1   
    51   26   49 1   
@<TRIPOS>SUBSTRUCTURE
     1 2VA         1 TEMP              0 ****  ****    0 ROOT
