@<TRIPOS>MOLECULE
2VA
   49    47     1     0     0
SMALL
bcc


@<TRIPOS>ATOM
      1 CG2        -4.3640    1.6870   -2.9260 c3        1 2VA     -0.098600
      2 CB         -2.9130    2.1600   -2.5550 c3        1 2VA     -0.103700
      3 CG1        -2.8570    3.7080   -2.5570 c3        1 2VA     -0.098600
      4 CA         -2.5390    1.6380   -1.1630 c3        1 2VA      0.112500
      5 N          -2.7520    2.6560   -0.1980 n3        1 2VA     -0.893800
      6 C          -1.0510    1.2220   -1.1550 c         1 2VA      0.667100
      7 O          -0.2080    1.9740   -1.5960 o         1 2VA     -0.608100
      8 NAZ        -0.6470   -0.0590   -0.5430 n         1 2VA     -0.541900
      9 C2'         0.8110   -0.4240   -0.4700 c3        1 2VA      0.078700
     10 C3'         1.3470   -0.9010   -1.9260 c3        1 2VA      0.094100
     11 O3'         0.3450   -1.6730   -2.6020 oh        1 2VA     -0.593800
     12 C4'         2.4100   -1.6380   -1.7010 c3        1 2VA      0.058100
     13 C5'         3.6230   -0.7940   -1.7230 c3        1 2VA      0.119400
     14 O5'         4.7350   -1.5930   -1.7520 oh        1 2VA     -0.589800
     15 O4'         2.2030   -2.2220   -0.3010 os        1 2VA     -0.420600
     16 C1'         0.9800   -1.4150    0.3230 c3        1 2VA      0.241800
     17 N9          1.3010   -0.9450    1.6480 n3        1 2VA     -0.121400
     18 C8          2.3300   -0.1020    2.0160 c1        1 2VA      0.175400
     19 N7          2.5140   -0.2260    3.3360 ne        1 2VA     -0.381400
     20 C5          1.6100   -1.1400    3.8020 cg        1 2VA     -0.191000
     21 C4          0.8680   -1.5730    2.7380 c1        1 2VA      0.355500
     22 N3         -0.1040   -2.4960    2.9200 n1        1 2VA     -0.536800
     23 C2         -0.3460   -2.9940    4.1590 c1        1 2VA      0.410300
     24 N1          0.3950   -2.5630    5.2310 n1        1 2VA     -0.593800
     25 C6          1.3650   -1.6430    5.0540 c1        1 2VA      0.297800
     26 N6          1.7540   -1.4330    6.4250 n3        1 2VA     -0.820400
     27 HG21       -4.9850    2.0840   -2.3400 hc        1 2VA      0.041700
     28 HG22       -4.5670    1.9550   -3.8540 hc        1 2VA      0.041700
     29 HG23       -4.4220    0.6780   -2.8450 hc        1 2VA      0.041700
     30 HB         -2.3350    1.8400   -3.1570 hc        1 2VA      0.056700
     31 HG11       -3.5420    4.0680   -1.9080 hc        1 2VA      0.041700
     32 HG12       -1.9230    4.0190   -2.2740 hc        1 2VA      0.041700
     33 HG13       -3.0500    4.0410   -3.4500 hc        1 2VA      0.041700
     34 HA         -3.1150    0.8340   -0.9380 h1        1 2VA      0.075700
     35 H          -3.5840    2.5710    0.1580 hn        1 2VA      0.363300
     36 H2         -2.1550    2.5900    0.4350 hn        1 2VA      0.363300
     37 HAZ        -1.2870   -0.6420   -0.2220 hn        1 2VA      0.327500
     38 H2'         1.3090    0.3130   -0.1720 h1        1 2VA      0.106700
     39 H3'         1.5780   -0.1540   -2.4430 h1        1 2VA      0.064700
     40 H1          0.3210   -1.4280   -3.5010 ho        1 2VA      0.416000
     41 H4'         2.4800   -2.3900   -2.3930 h1        1 2VA      0.092700
     42 H5'1        3.6110   -0.2090   -2.5390 h1        1 2VA      0.048700
     43 H5'2        3.6440   -0.2540   -0.9490 h1        1 2VA      0.048700
     44 H5'         5.4370   -1.1030   -1.8140 ho        1 2VA      0.419000
     45 H1'         0.1180   -2.0180    0.3460 h2        1 2VA      0.122700
     46 H8          2.8850    0.4250    1.4060 DU        1 2VA      0.200000
     47 HC2        -1.0600   -3.6660    4.2900 ha        1 2VA      0.131500
     48 HN61        2.4160   -0.8270    6.6250 hn        1 2VA      0.448300
     49 HN62        1.4200   -1.9370    7.0560 hn        1 2VA      0.448300
@<TRIPOS>BOND
     1    1    2 1   
     2    1   27 1   
     3    1   28 1   
     4    1   29 1   
     5    2    3 1   
     6    2    4 1   
     7    2   30 1   
     8    3   31 1   
     9    3   32 1   
    10    3   33 1   
    11    4    5 1   
    12    4    6 1   
    13    4   34 1   
    14    5   35 1   
    15    5   36 1   
    16    6    7 2   
    17    6    8 1   
    18    8    9 1   
    19    8   37 1   
    20    9   10 1   
    21    9   16 1   
    22    9   38 1   
    23   10   11 1   
    24   10   12 1   
    25   10   39 1   
    26   11   40 1   
    27   12   13 1   
    28   12   15 1   
    29   12   41 1   
    30   13   14 1   
    31   13   42 1   
    32   13   43 1   
    33   14   44 1   
    34   15   16 1   
    35   16   17 1   
    36   16   45 1   
    37   17   18 2   
    38   17   21 1   
    39   18   19 2   
    40   19   20 1   
    41   20   25 3   
    42   21   22 3   
    43   23   24 3   
    44   23   47 1   
    45   25   26 1   
    46   26   48 1   
    47   26   49 1   
@<TRIPOS>SUBSTRUCTURE
     1 2VA         1 TEMP              0 ****  ****    0 ROOT
