@<TRIPOS>MOLECULE
2VD
   54    57     1     0     0
SMALL
bcc


@<TRIPOS>ATOM
      1 CAM        -0.2740    1.9030    0.4430 c3        1 2VD     -0.013200
      2 CAL         0.9820    2.6380    0.9030 c3        1 2VD     -0.060400
      3 CAK         1.6780    1.9500    2.0610 c3        1 2VD     -0.183700
      4 CBD         2.9290    2.7440    2.5340 c         1 2VD      0.920600
      5 OBF         3.0650    2.9060    3.7870 o         1 2VD     -0.841800
      6 OBE         3.7330    3.1660    1.6670 o         1 2VD     -0.841800
      7 CAJ         0.7670    1.7780    3.2660 c3        1 2VD     -0.028200
      8 CAH        -0.6370    1.5510    2.8860 cc        1 2VD     -0.050300
      9 CAI        -1.1430    1.6050    1.5930 cd        1 2VD     -0.110400
     10 CAE        -2.5710    1.3720    1.6850 ca        1 2VD     -0.065800
     11 CAF        -3.5940    1.2930    0.7470 ca        1 2VD     -0.062000
     12 CAA        -4.8960    1.0580    1.1890 ca        1 2VD     -0.048900
     13 Br         -6.2930    0.9550   -0.0600 br        1 2VD     -0.115100
     14 CAB        -5.1850    0.8960    2.5540 ca        1 2VD     -0.100000
     15 CAC        -4.1860    0.9620    3.5180 ca        1 2VD     -0.143000
     16 CAD        -2.8750    1.2010    3.0940 ca        1 2VD     -0.029200
     17 NAG        -1.6670    1.2580    3.8210 na        1 2VD     -0.082400
     18 CAO        -1.5620    1.6520    5.1930 c3        1 2VD     -0.019700
     19 CAP        -0.4580    0.8720    5.9190 c         1 2VD      0.534100
     20 OAQ        -0.4420   -0.3450    6.0590 o         1 2VD     -0.431100
     21 N           0.6550    1.6530    6.5200 ny        1 2VD     -0.663800
     22 CA          0.1850    2.6100    7.5800 c3        1 2VD     -0.044500
     23 C           0.5400    2.0450    9.0320 c         1 2VD      0.931600
     24 OXT        -0.0150    2.6480    9.9710 o         1 2VD     -0.770800
     25 O           1.3180    1.0590    9.0630 o         1 2VD     -0.770800
     26 CB          0.8070    3.9930    7.4230 c3        1 2VD     -0.050100
     27 CG          0.2480    4.7390    6.2640 ca        1 2VD     -0.130300
     28 CD1        -1.0170    5.3330    6.3670 ca        1 2VD     -0.136000
     29 CE1        -1.5430    6.0560    5.2990 ca        1 2VD     -0.132000
     30 CZ         -0.8100    6.1910    4.1190 ca        1 2VD     -0.136000
     31 CE2         0.4480    5.6000    4.0110 ca        1 2VD     -0.132000
     32 CD2         0.9810    4.8760    5.0800 ca        1 2VD     -0.136000
     33 H1          0.0160    0.9430   -0.0660 hc        1 2VD      0.041200
     34 H2         -0.8270    2.5270   -0.3070 hc        1 2VD      0.041200
     35 H3          0.7060    3.6820    1.2090 hc        1 2VD      0.053200
     36 H4          1.7080    2.7190    0.0530 hc        1 2VD      0.053200
     37 H5          2.0360    0.9420    1.7180 hc        1 2VD      0.049700
     38 H7          1.1570    0.9270    3.8880 hc        1 2VD      0.056700
     39 H8          0.8220    2.7270    3.8780 hc        1 2VD      0.056700
     40 H9         -3.3640    1.4170   -0.3220 ha        1 2VD      0.150000
     41 H10        -6.2220    0.7110    2.8750 ha        1 2VD      0.139000
     42 H11        -4.4280    0.8240    4.5800 ha        1 2VD      0.134000
     43 H12        -2.5270    1.4130    5.7280 h1        1 2VD      0.098200
     44 H13        -1.3630    2.7650    5.2780 h1        1 2VD      0.098200
     45 H14         1.3120    0.9960    7.0070 hn        1 2VD      0.488800
     46 H15        -0.9350    2.6930    7.5200 hx        1 2VD      0.074700
     47 H17         1.9250    3.9160    7.3410 hc        1 2VD      0.092200
     48 H18         0.5810    4.5410    8.3820 hc        1 2VD      0.092200
     49 H19        -1.5870    5.2360    7.3030 ha        1 2VD      0.167000
     50 H20        -2.5340    6.5240    5.3880 ha        1 2VD      0.138000
     51 H21        -1.2250    6.7620    3.2750 ha        1 2VD      0.126000
     52 H22         1.0310    5.6900    3.0800 ha        1 2VD      0.138000
     53 H23         1.9820    4.4090    4.9650 ha        1 2VD      0.167000
     54 H24         1.1730    2.1570    5.7810 hn        1 2VD      0.488800
@<TRIPOS>BOND
     1    1    2 1   
     2    1    9 1   
     3    1   33 1   
     4    1   34 1   
     5    2    3 1   
     6    2   35 1   
     7    2   36 1   
     8    3    4 1   
     9    3    7 1   
    10    3   37 1   
    11    4    5 1   
    12    4    6 1   
    13    7    8 1   
    14    7   38 1   
    15    7   39 1   
    16    8    9 2   
    17    8   17 1   
    18    9   10 1   
    19   10   11 ar  
    20   10   16 ar  
    21   11   12 ar  
    22   11   40 1   
    23   12   13 1   
    24   12   14 ar  
    25   14   15 ar  
    26   14   41 1   
    27   15   16 ar  
    28   15   42 1   
    29   16   17 1   
    30   17   18 1   
    31   18   19 1   
    32   18   43 1   
    33   18   44 1   
    34   19   20 2   
    35   19   21 1   
    36   21   22 1   
    37   21   45 1   
    38   21   54 1   
    39   22   23 1   
    40   22   26 1   
    41   22   46 1   
    42   23   24 1   
    43   23   25 1   
    44   26   27 1   
    45   26   47 1   
    46   26   48 1   
    47   27   28 ar  
    48   27   32 ar  
    49   28   29 ar  
    50   28   49 1   
    51   29   30 ar  
    52   29   50 1   
    53   30   31 ar  
    54   30   51 1   
    55   31   32 ar  
    56   31   52 1   
    57   32   53 1   
@<TRIPOS>SUBSTRUCTURE
     1 2VD         1 TEMP              0 ****  ****    0 ROOT
