@<TRIPOS>MOLECULE
2VD
   54    57     1     0     0
SMALL
bcc


@<TRIPOS>ATOM
      1 CAM        -0.1670    1.5840    0.5290 c3        1 2VD     -0.013200
      2 CAL         1.0990    2.3090    0.9750 c3        1 2VD     -0.060400
      3 CAK         1.7240    1.6980    2.2140 c3        1 2VD     -0.183700
      4 CBD         2.9880    2.4830    2.6680 c         1 2VD      0.920600
      5 OBF         3.0840    2.7470    3.9080 o         1 2VD     -0.841800
      6 OBE         3.8390    2.7990    1.8010 o         1 2VD     -0.841800
      7 CAJ         0.7640    1.6630    3.3920 c3        1 2VD     -0.028200
      8 CAH        -0.6330    1.4560    2.9770 cc        1 2VD     -0.050300
      9 CAI        -1.0900    1.4180    1.6650 cd        1 2VD     -0.110400
     10 CAE        -2.5280    1.2460    1.7180 ca        1 2VD     -0.065800
     11 CAF        -3.5180    1.1250    0.7500 ca        1 2VD     -0.062000
     12 CAA        -4.8430    0.9770    1.1580 ca        1 2VD     -0.048900
     13 BR         -6.1970    0.8190   -0.1330 br        1 2VD     -0.115100
     14 CAB        -5.1890    0.9430    2.5180 ca        1 2VD     -0.100000
     15 CAC        -4.2240    1.0550    3.5120 ca        1 2VD     -0.143000
     16 CAD        -2.8900    1.2080    3.1230 ca        1 2VD     -0.029200
     17 NAG        -1.7080    1.2830    3.8900 na        1 2VD     -0.082400
     18 CAO        -1.6380    1.7890    5.2270 c3        1 2VD     -0.019700
     19 CAP        -0.5940    1.0330    6.0600 c         1 2VD      0.534100
     20 OAQ        -0.6320   -0.1670    6.3030 o         1 2VD     -0.431100
     21 N           0.5260    1.8210    6.6380 n4        1 2VD     -0.663800
     22 CA          0.0570    2.8820    7.5940 c3        1 2VD     -0.044500
     23 C           0.3360    2.4300    9.1010 c         1 2VD      0.931600
     24 OXT         1.0720    1.4220    9.2460 o         1 2VD     -0.770800
     25 O          -0.2280    3.1310    9.9640 o         1 2VD     -0.770800
     26 CB          0.7390    4.2220    7.3470 c3        1 2VD     -0.050100
     27 CG          0.2530    4.8860    6.1080 ca        1 2VD     -0.130300
     28 CD1         1.0340    4.8950    4.9460 ca        1 2VD     -0.136000
     29 CE1         0.5690    5.5450    3.8000 ca        1 2VD     -0.132000
     30 CZ         -0.6670    6.1890    3.8080 ca        1 2VD     -0.136000
     31 CE2        -1.4470    6.1820    4.9650 ca        1 2VD     -0.132000
     32 CD2        -0.9900    5.5340    6.1100 ca        1 2VD     -0.136000
     33 H1          0.1020    0.5740    0.1150 hc        1 2VD      0.041200
     34 H2         -0.6660    2.1620   -0.2930 hc        1 2VD      0.041200
     35 H3          0.8540    3.3850    1.1800 hc        1 2VD      0.053200
     36 H4          1.8580    2.2900    0.1510 hc        1 2VD      0.053200
     37 H5          2.0540    0.6520    1.9720 hc        1 2VD      0.049700
     38 H7          0.8340    2.6590    3.9240 hc        1 2VD      0.056700
     39 H8          1.0960    0.8550    4.0980 hc        1 2VD      0.056700
     40 H9         -3.2440    1.1480   -0.3160 ha        1 2VD      0.150000
     41 H10        -6.2440    0.8250    2.8120 ha        1 2VD      0.139000
     42 H11        -4.5110    1.0180    4.5720 ha        1 2VD      0.134000
     43 H12        -2.6310    1.6330    5.7420 h1        1 2VD      0.098200
     44 H13        -1.3980    2.8970    5.2260 h1        1 2VD      0.098200
     45 H14         1.1380    1.1830    7.2040 hn        1 2VD      0.488800
     46 H15        -1.0560    3.0000    7.4830 hx        1 2VD      0.074700
     47 H17         0.5010    4.8580    8.2460 hc        1 2VD      0.092200
     48 H18         1.8550    4.0970    7.3150 hc        1 2VD      0.092200
     49 H19         2.0190    4.3830    4.9100 ha        1 2VD      0.167000
     50 H20         1.1890    5.5340    2.8890 ha        1 2VD      0.138000
     51 H21        -1.0280    6.7000    2.9040 ha        1 2VD      0.126000
     52 H22        -2.4210    6.6910    4.9750 ha        1 2VD      0.138000
     53 H23        -1.5970    5.5380    7.0280 ha        1 2VD      0.167000
     54 H24         1.0910    2.2410    5.8800 hn        1 2VD      0.488800
@<TRIPOS>BOND
     1    1    2 1   
     2    1    9 1   
     3    1   33 1   
     4    1   34 1   
     5    2    3 1   
     6    2   35 1   
     7    2   36 1   
     8    3    4 1   
     9    3    7 1   
    10    3   37 1   
    11    4    5 1   
    12    4    6 1   
    13    7    8 1   
    14    7   38 1   
    15    7   39 1   
    16    8    9 2   
    17    8   17 1   
    18    9   10 1   
    19   10   11 ar  
    20   10   16 ar  
    21   11   12 ar  
    22   11   40 1   
    23   12   13 1   
    24   12   14 ar  
    25   14   15 ar  
    26   14   41 1   
    27   15   16 ar  
    28   15   42 1   
    29   16   17 1   
    30   17   18 1   
    31   18   19 1   
    32   18   43 1   
    33   18   44 1   
    34   19   20 2   
    35   19   21 1   
    36   21   22 1   
    37   21   45 1   
    38   21   54 1   
    39   22   23 1   
    40   22   26 1   
    41   22   46 1   
    42   23   24 1   
    43   23   25 1   
    44   26   27 1   
    45   26   47 1   
    46   26   48 1   
    47   27   28 ar  
    48   27   32 ar  
    49   28   29 ar  
    50   28   49 1   
    51   29   30 ar  
    52   29   50 1   
    53   30   31 ar  
    54   30   51 1   
    55   31   32 ar  
    56   31   52 1   
    57   32   53 1   
@<TRIPOS>SUBSTRUCTURE
     1 2VD         1 TEMP              0 ****  ****    0 ROOT
