@<TRIPOS>MOLECULE
2VD
   54    57     1     0     0
SMALL
bcc


@<TRIPOS>ATOM
      1 CAM        -0.1590    1.7680    0.4840 c3        1 2VD     -0.013200
      2 CAL         1.0850    2.5150    0.9580 c3        1 2VD     -0.060400
      3 CAK         1.7410    1.8660    2.1610 c3        1 2VD     -0.183700
      4 CBD         2.9800    2.6720    2.6450 c         1 2VD      0.920600
      5 OBF         3.0770    2.8790    3.8950 o         1 2VD     -0.841800
      6 OBE         3.8130    3.0590    1.7890 o         1 2VD     -0.841800
      7 CAJ         0.7920    1.7410    3.3420 c3        1 2VD     -0.028200
      8 CAH        -0.6010    1.5060    2.9260 cc        1 2VD     -0.050300
      9 CAI        -1.0660    1.5160    1.6160 cd        1 2VD     -0.110400
     10 CAE        -2.4970    1.2920    1.6710 ca        1 2VD     -0.065800
     11 CAF        -3.4900    1.1840    0.7040 ca        1 2VD     -0.062000
     12 CAA        -4.8060    0.9700    1.1120 ca        1 2VD     -0.048900
     13 BR         -6.1640    0.8280   -0.1760 br        1 2VD     -0.115100
     14 CAB        -5.1400    0.8580    2.4710 ca        1 2VD     -0.100000
     15 CAC        -4.1710    0.9550    3.4640 ca        1 2VD     -0.143000
     16 CAD        -2.8460    1.1730    3.0750 ca        1 2VD     -0.029200
     17 NAG        -1.6620    1.2520    3.8370 na        1 2VD     -0.082400
     18 CAO        -1.5980    1.6950    5.1960 c3        1 2VD     -0.019700
     19 CAP        -0.5220    0.9360    5.9850 c         1 2VD      0.534100
     20 OAQ        -0.5170   -0.2740    6.1690 o         1 2VD     -0.431100
     21 N           0.5750    1.7350    6.5930 n4        1 2VD     -0.663800
     22 CA          0.0760    2.7320    7.6010 c3        1 2VD     -0.044500
     23 C           0.3820    2.2180    9.0840 c         1 2VD      0.931600
     24 OXT         1.1540    1.2300    9.1750 o         1 2VD     -0.770800
     25 O          -0.2000    2.8560    9.9830 o         1 2VD     -0.770800
     26 CB          0.7100    4.1050    7.4150 c3        1 2VD     -0.050100
     27 CG          0.1920    4.8110    6.2130 ca        1 2VD     -0.130300
     28 CD1        -1.0730    5.4130    6.2530 ca        1 2VD     -0.136000
     29 CE1        -1.5600    6.0990    5.1440 ca        1 2VD     -0.132000
     30 CZ         -0.7900    6.1890    3.9840 ca        1 2VD     -0.136000
     31 CE2         0.4680    5.5900    3.9380 ca        1 2VD     -0.132000
     32 CD2         0.9630    4.9020    5.0480 ca        1 2VD     -0.136000
     33 H1         -0.6840    2.3680   -0.3050 hc        1 2VD      0.041200
     34 H2          0.1420    0.7900    0.0200 hc        1 2VD      0.041200
     35 H3          1.8380    2.5620    0.1280 hc        1 2VD      0.053200
     36 H4          0.8050    3.5700    1.2160 hc        1 2VD      0.053200
     37 H5          2.1050    0.8460    1.8670 hc        1 2VD      0.049700
     38 H7          0.8320    2.7120    3.9210 hc        1 2VD      0.056700
     39 H8          1.1570    0.9120    4.0060 hc        1 2VD      0.056700
     40 H9         -3.2260    1.2680   -0.3610 ha        1 2VD      0.150000
     41 H10        -6.1870    0.6890    2.7660 ha        1 2VD      0.139000
     42 H11        -4.4480    0.8560    4.5220 ha        1 2VD      0.134000
     43 H12        -2.5810    1.4790    5.7090 h1        1 2VD      0.098200
     44 H13        -1.3970    2.8090    5.2470 h1        1 2VD      0.098200
     45 H14         1.2130    1.0930    7.1240 hn        1 2VD      0.488800
     46 H15        -1.0410    2.8160    7.5040 hx        1 2VD      0.074700
     47 H17         0.4560    4.6890    8.3460 hc        1 2VD      0.092200
     48 H18         1.8290    4.0210    7.3720 hc        1 2VD      0.092200
     49 H19        -1.6730    5.3520    7.1740 ha        1 2VD      0.167000
     50 H20        -2.5510    6.5740    5.1840 ha        1 2VD      0.138000
     51 H21        -1.1750    6.7300    3.1080 ha        1 2VD      0.126000
     52 H22         1.0810    5.6430    3.0240 ha        1 2VD      0.138000
     53 H23         1.9650    4.4270    4.9820 ha        1 2VD      0.167000
     54 H24         1.1190    2.2100    5.8530 hn        1 2VD      0.488800
@<TRIPOS>BOND
     1    1    2 1   
     2    1    9 1   
     3    1   33 1   
     4    1   34 1   
     5    2    3 1   
     6    2   35 1   
     7    2   36 1   
     8    3    4 1   
     9    3    7 1   
    10    3   37 1   
    11    4    5 1   
    12    4    6 1   
    13    7    8 1   
    14    7   38 1   
    15    7   39 1   
    16    8    9 2   
    17    8   17 1   
    18    9   10 1   
    19   10   11 ar  
    20   10   16 ar  
    21   11   12 ar  
    22   11   40 1   
    23   12   13 1   
    24   12   14 ar  
    25   14   15 ar  
    26   14   41 1   
    27   15   16 ar  
    28   15   42 1   
    29   16   17 1   
    30   17   18 1   
    31   18   19 1   
    32   18   43 1   
    33   18   44 1   
    34   19   20 2   
    35   19   21 1   
    36   21   22 1   
    37   21   45 1   
    38   21   54 1   
    39   22   23 1   
    40   22   26 1   
    41   22   46 1   
    42   23   24 1   
    43   23   25 1   
    44   26   27 1   
    45   26   47 1   
    46   26   48 1   
    47   27   28 ar  
    48   27   32 ar  
    49   28   29 ar  
    50   28   49 1   
    51   29   30 ar  
    52   29   50 1   
    53   30   31 ar  
    54   30   51 1   
    55   31   32 ar  
    56   31   52 1   
    57   32   53 1   
@<TRIPOS>SUBSTRUCTURE
     1 2VD         1 TEMP              0 ****  ****    0 ROOT
