@<TRIPOS>MOLECULE
2VE
   41    43     1     0     0
SMALL
bcc


@<TRIPOS>ATOM
      1 OAX         0.8000   -0.7940   -2.0510 o         1 2VE     -0.794800
      2 CAW         1.2270    0.0510   -1.2040 c         1 2VE      0.917600
      3 OAY         1.1170   -0.0060    0.0370 o         1 2VE     -0.794800
      4 CAV         1.9760    1.2870   -1.8010 c3        1 2VE     -0.036200
      5 NAU         1.6580    1.4550   -3.2430 n4        1 2VE     -0.654800
      6 C           1.8390    0.1520   -3.9620 c         1 2VE      0.572100
      7 O           2.9630   -0.3400   -3.9680 o         1 2VE     -0.486100
      8 CA          0.6250   -0.4440   -4.6910 c3        1 2VE     -0.016700
      9 N           0.7260   -0.4260   -6.1260 na        1 2VE     -0.055400
     10 CAH         1.0570    0.7870   -6.7880 cc        1 2VE     -0.080300
     11 CAJ         0.7810    2.1690   -6.3420 c3        1 2VE     -0.019200
     12 CAK         2.1460    2.8580   -6.4320 c3        1 2VE     -0.186700
     13 CAO         2.1050    4.1460   -5.5960 c         1 2VE      0.923600
     14 OAQ         2.1710    5.2740   -6.1340 o         1 2VE     -0.831800
     15 OAP         1.9970    3.9620   -4.3330 o         1 2VE     -0.831800
     16 CAL         2.5260    2.9930   -7.8930 c3        1 2VE     -0.058400
     17 CAM         2.4500    1.6740   -8.6760 c3        1 2VE     -0.013200
     18 CAI         1.8480    0.5670   -7.9120 cd        1 2VE     -0.116400
     19 CAB         2.0380   -0.8680   -8.0140 ca        1 2VE     -0.067800
     20 CAA         1.3840   -1.4510   -6.8590 ca        1 2VE     -0.037200
     21 CAF         1.4020   -2.8330   -6.6560 ca        1 2VE     -0.124000
     22 CAE         2.0560   -3.6280   -7.5920 ca        1 2VE     -0.103000
     23 CAD         2.6800   -3.0670   -8.7170 ca        1 2VE     -0.042900
     24 BR          3.5370   -4.1960   -9.9480 br        1 2VE     -0.120100
     25 CAC         2.6770   -1.6890   -8.9350 ca        1 2VE     -0.070000
     26 H2          3.0800    1.1170   -1.6950 hx        1 2VE      0.091200
     27 H3          1.6830    2.2230   -1.2580 hx        1 2VE      0.091200
     28 H4          2.2360    2.2240   -3.6840 hn        1 2VE      0.475300
     29 H5         -0.3180    0.0980   -4.3970 h1        1 2VE      0.112700
     30 H6          0.5460   -1.5080   -4.3160 h1        1 2VE      0.112700
     31 H7          0.3390    2.2440   -5.3200 hc        1 2VE      0.057700
     32 H8          0.0560    2.6610   -7.0440 hc        1 2VE      0.057700
     33 H9          2.9170    2.2020   -5.9320 hc        1 2VE      0.036700
     34 H11         1.8510    3.7520   -8.3690 hc        1 2VE      0.053200
     35 H12         3.5680    3.4000   -7.9570 hc        1 2VE      0.053200
     36 H13         3.4840    1.3680   -8.9920 hc        1 2VE      0.040200
     37 H14         1.8590    1.8440   -9.6170 hc        1 2VE      0.040200
     38 H15         0.9210   -3.2870   -5.7780 ha        1 2VE      0.146000
     39 H16         2.0820   -4.7180   -7.4370 ha        1 2VE      0.139000
     40 H17         3.1690   -1.2460   -9.8150 ha        1 2VE      0.146000
     41 HAU2        0.6810    1.7480   -3.3180 hn        1 2VE      0.475300
@<TRIPOS>BOND
     1    1    2 1   
     2    2    3 1   
     3    2    4 1   
     4    4    5 1   
     5    4   26 1   
     6    4   27 1   
     7    5    6 1   
     8    5   28 1   
     9    5   41 1   
    10    6    7 2   
    11    6    8 1   
    12    8    9 1   
    13    8   29 1   
    14    8   30 1   
    15    9   10 1   
    16    9   20 1   
    17   10   11 1   
    18   10   18 2   
    19   11   12 1   
    20   11   31 1   
    21   11   32 1   
    22   12   13 1   
    23   12   16 1   
    24   12   33 1   
    25   13   14 1   
    26   13   15 1   
    27   16   17 1   
    28   16   34 1   
    29   16   35 1   
    30   17   18 1   
    31   17   36 1   
    32   17   37 1   
    33   18   19 1   
    34   19   20 ar  
    35   19   25 ar  
    36   20   21 ar  
    37   21   22 ar  
    38   21   38 1   
    39   22   23 ar  
    40   22   39 1   
    41   23   24 1   
    42   23   25 ar  
    43   25   40 1   
@<TRIPOS>SUBSTRUCTURE
     1 2VE         1 TEMP              0 ****  ****    0 ROOT
