@<TRIPOS>MOLECULE
2VE
   41    43     1     0     0
SMALL
bcc


@<TRIPOS>ATOM
      1 OAX         0.8080   -0.8060   -2.0520 o         1 2VE     -0.794800
      2 CAW         1.2300    0.0400   -1.2040 c         1 2VE      0.917600
      3 OAY         1.1200   -0.0190    0.0370 o         1 2VE     -0.794800
      4 CAV         1.9710    1.2810   -1.8000 c3        1 2VE     -0.036200
      5 NAU         1.6530    1.4480   -3.2420 n4        1 2VE     -0.654800
      6 C           1.8410    0.1470   -3.9630 c         1 2VE      0.572100
      7 O           2.9680   -0.3380   -3.9690 o         1 2VE     -0.486100
      8 CA          0.6310   -0.4560   -4.6920 c3        1 2VE     -0.016700
      9 N           0.7320   -0.4360   -6.1260 na        1 2VE     -0.055400
     10 CAH         1.0550    0.7790   -6.7880 cc        1 2VE     -0.080300
     11 CAJ         0.7710    2.1590   -6.3400 c3        1 2VE     -0.019200
     12 CAK         2.1320    2.8570   -6.4300 c3        1 2VE     -0.186700
     13 CAO         2.0830    4.1440   -5.5930 c         1 2VE      0.923600
     14 OAQ         2.1410    5.2720   -6.1300 o         1 2VE     -0.831800
     15 OAP         1.9760    3.9580   -4.3310 o         1 2VE     -0.831800
     16 CAL         2.5100    2.9950   -7.8910 c3        1 2VE     -0.058400
     17 CAM         2.4430    1.6760   -8.6750 c3        1 2VE     -0.013200
     18 CAI         1.8480    0.5650   -7.9120 cd        1 2VE     -0.116400
     19 CAB         2.0470   -0.8690   -8.0150 ca        1 2VE     -0.067800
     20 CAA         1.3950   -1.4570   -6.8610 ca        1 2VE     -0.037200
     21 CAF         1.4210   -2.8390   -6.6590 ca        1 2VE     -0.124000
     22 CAE         2.0800   -3.6290   -7.5960 ca        1 2VE     -0.103000
     23 CAD         2.7020   -3.0630   -8.7190 ca        1 2VE     -0.042900
     24 BR          3.5650   -4.1860   -9.9520 br        1 2VE     -0.120100
     25 CAC         2.6900   -1.6850   -8.9370 ca        1 2VE     -0.070000
     26 H2          1.6730    2.2150   -1.2570 hx        1 2VE      0.091200
     27 H3          3.0760    1.1180   -1.6950 hx        1 2VE      0.091200
     28 H4          2.2250    2.2210   -3.6830 hn        1 2VE      0.475300
     29 H5          0.5590   -1.5210   -4.3180 h1        1 2VE      0.112700
     30 H6         -0.3150    0.0800   -4.3970 h1        1 2VE      0.112700
     31 H7          0.0430    2.6470   -7.0430 hc        1 2VE      0.057700
     32 H8          0.3290    2.2310   -5.3190 hc        1 2VE      0.057700
     33 H9          2.9060    2.2050   -5.9310 hc        1 2VE      0.036700
     34 H11         1.8310    3.7510   -8.3660 hc        1 2VE      0.053200
     35 H12         3.5500    3.4080   -7.9550 hc        1 2VE      0.053200
     36 H13         1.8520    1.8430   -9.6160 hc        1 2VE      0.040200
     37 H14         3.4790    1.3770   -8.9910 hc        1 2VE      0.040200
     38 H15         0.9440   -3.2960   -5.7810 ha        1 2VE      0.146000
     39 H16         2.1130   -4.7190   -7.4410 ha        1 2VE      0.139000
     40 H17         3.1790   -1.2390   -9.8160 ha        1 2VE      0.146000
     41 HAU2        0.6740    1.7350   -3.3170 hn        1 2VE      0.475300
@<TRIPOS>BOND
     1    1    2 1   
     2    2    3 1   
     3    2    4 1   
     4    4    5 1   
     5    4   26 1   
     6    4   27 1   
     7    5    6 1   
     8    5   28 1   
     9    5   41 1   
    10    6    7 2   
    11    6    8 1   
    12    8    9 1   
    13    8   29 1   
    14    8   30 1   
    15    9   10 1   
    16    9   20 1   
    17   10   11 1   
    18   10   18 2   
    19   11   12 1   
    20   11   31 1   
    21   11   32 1   
    22   12   13 1   
    23   12   16 1   
    24   12   33 1   
    25   13   14 1   
    26   13   15 1   
    27   16   17 1   
    28   16   34 1   
    29   16   35 1   
    30   17   18 1   
    31   17   36 1   
    32   17   37 1   
    33   18   19 1   
    34   19   20 ar  
    35   19   25 ar  
    36   20   21 ar  
    37   21   22 ar  
    38   21   38 1   
    39   22   23 ar  
    40   22   39 1   
    41   23   24 1   
    42   23   25 ar  
    43   25   40 1   
@<TRIPOS>SUBSTRUCTURE
     1 2VE         1 TEMP              0 ****  ****    0 ROOT
