@<TRIPOS>MOLECULE
2VE
   41    43     1     0     0
SMALL
bcc


@<TRIPOS>ATOM
      1 OAX         0.8660   -0.7650   -2.0230 o         1 2VE     -0.794800
      2 CAW         1.2730    0.1050   -1.1930 c         1 2VE      0.917600
      3 OAY         1.1730    0.0650    0.0500 o         1 2VE     -0.794800
      4 CAV         1.9800    1.3530   -1.8150 c3        1 2VE     -0.036200
      5 NAU         1.6480    1.4880   -3.2570 ny        1 2VE     -0.654800
      6 C           1.8620    0.1800   -3.9570 c         1 2VE      0.572100
      7 O           3.0000   -0.2790   -3.9630 o         1 2VE     -0.486100
      8 CA          0.6620   -0.4640   -4.6680 c3        1 2VE     -0.016700
      9 N           0.7530   -0.4670   -6.1020 na        1 2VE     -0.055400
     10 CAH         1.0430    0.7450   -6.7870 cc        1 2VE     -0.080300
     11 CAJ         0.7290    2.1250   -6.3610 c3        1 2VE     -0.019200
     12 CAK         2.0720    2.8530   -6.4720 c3        1 2VE     -0.186700
     13 CAO         1.9980    4.1530   -5.6560 c         1 2VE      0.923600
     14 OAQ         2.0260    5.2730   -6.2130 o         1 2VE     -0.831800
     15 OAP         1.9040    3.9860   -4.3900 o         1 2VE     -0.831800
     16 CAL         2.4370    2.9760   -7.9380 c3        1 2VE     -0.058400
     17 CAM         2.3970    1.6420   -8.6990 c3        1 2VE     -0.013200
     18 CAI         1.8330    0.5300   -7.9130 cd        1 2VE     -0.116400
     19 CAB         2.0650   -0.9000   -7.9930 ca        1 2VE     -0.067800
     20 CAA         1.4360   -1.4830   -6.8240 ca        1 2VE     -0.037200
     21 CAF         1.4960   -2.8610   -6.5990 ca        1 2VE     -0.124000
     22 CAE         2.1680   -3.6510   -7.5270 ca        1 2VE     -0.103000
     23 CAD         2.7670   -3.0900   -8.6650 ca        1 2VE     -0.042900
     24 Br          3.6490   -4.2130   -9.8840 br        1 2VE     -0.120100
     25 CAC         2.7220   -1.7160   -8.9050 ca        1 2VE     -0.070000
     26 H2          3.0890    1.2180   -1.7150 hx        1 2VE      0.091200
     27 H3          1.6630    2.2890   -1.2850 hx        1 2VE      0.091200
     28 H4          2.1990    2.2670   -3.7150 hn        1 2VE      0.475300
     29 H5          0.6180   -1.5240   -4.2740 h1        1 2VE      0.112700
     30 H6         -0.2940    0.0540   -4.3750 h1        1 2VE      0.112700
     31 H7          0.2920    2.2040   -5.3370 hc        1 2VE      0.057700
     32 H8         -0.0150    2.5840   -7.0660 hc        1 2VE      0.057700
     33 H9          2.8650    2.2280   -5.9670 hc        1 2VE      0.036700
     34 H11         3.4660    3.4120   -8.0160 hc        1 2VE      0.053200
     35 H12         1.7370    3.7070   -8.4200 hc        1 2VE      0.053200
     36 H13         3.4370    1.3620   -9.0170 hc        1 2VE      0.040200
     37 H14         1.7950    1.7790   -9.6380 hc        1 2VE      0.040200
     38 H15         1.0360   -3.3140   -5.7100 ha        1 2VE      0.146000
     39 H16         2.2280   -4.7370   -7.3550 ha        1 2VE      0.139000
     40 H17         3.1940   -1.2740   -9.7950 ha        1 2VE      0.146000
     41 HAU2        0.6620    1.7500   -3.3290 hn        1 2VE      0.475300
@<TRIPOS>BOND
     1    1    2 1   
     2    2    3 1   
     3    2    4 1   
     4    4    5 1   
     5    4   26 1   
     6    4   27 1   
     7    5    6 1   
     8    5   28 1   
     9    5   41 1   
    10    6    7 2   
    11    6    8 1   
    12    8    9 1   
    13    8   29 1   
    14    8   30 1   
    15    9   10 1   
    16    9   20 1   
    17   10   11 1   
    18   10   18 2   
    19   11   12 1   
    20   11   31 1   
    21   11   32 1   
    22   12   13 1   
    23   12   16 1   
    24   12   33 1   
    25   13   14 1   
    26   13   15 1   
    27   16   17 1   
    28   16   34 1   
    29   16   35 1   
    30   17   18 1   
    31   17   36 1   
    32   17   37 1   
    33   18   19 1   
    34   19   20 ar  
    35   19   25 ar  
    36   20   21 ar  
    37   21   22 ar  
    38   21   38 1   
    39   22   23 ar  
    40   22   39 1   
    41   23   24 1   
    42   23   25 ar  
    43   25   40 1   
@<TRIPOS>SUBSTRUCTURE
     1 2VE         1 TEMP              0 ****  ****    0 ROOT
