@<TRIPOS>MOLECULE
2VF
   36    38     1     0     0
SMALL
bcc


@<TRIPOS>ATOM
      1 O2          2.5380    0.0650    0.8500 o         1 2VF     -0.603100
      2 C13         1.8870    0.6160   -0.0600 c         1 2VF      0.630100
      3 N1          0.8220    1.4270    0.2180 n         1 2VF     -0.664000
      4 C12         2.3340    0.4370   -1.5220 c3        1 2VF     -0.033700
      5 N           1.2940    0.2210   -2.4730 na        1 2VF     -0.069400
      6 C3          0.4650    1.2130   -3.0240 ca        1 2VF     -0.053200
      7 C2          0.5290    2.6120   -2.9360 ca        1 2VF     -0.147000
      8 C1         -0.4200    3.3540   -3.6220 ca        1 2VF     -0.106000
      9 C11         0.7800   -1.0300   -2.8620 cc        1 2VF     -0.042300
     10 C10         1.3560   -2.3460   -2.5020 c3        1 2VF     -0.019200
     11 C8          0.3540   -3.4510   -2.8350 c3        1 2VF     -0.148700
     12 C9          1.0340   -4.7950   -2.7720 c         1 2VF      0.624100
     13 O1          2.2420   -5.0280   -2.7620 o         1 2VF     -0.482000
     14 O           0.2590   -5.9200   -2.7170 oh        1 2VF     -0.577100
     15 C7         -0.2710   -3.2570   -4.2130 c3        1 2VF     -0.077400
     16 C6         -1.0800   -1.9710   -4.2830 c3        1 2VF     -0.004200
     17 C5         -0.3340   -0.8540   -3.6890 cd        1 2VF     -0.138400
     18 C4         -0.5630    0.5660   -3.8120 ca        1 2VF     -0.068800
     19 C14        -1.5010    1.3380   -4.4940 ca        1 2VF     -0.078000
     20 C          -1.4210    2.7230   -4.3880 ca        1 2VF     -0.005600
     21 CL         -2.5570    3.6920   -5.2060 cl        1 2VF     -0.096400
     22 H1         -0.6770   -5.6780   -2.7370 ho        1 2VF      0.425000
     23 H2          0.5210    1.5270    1.1570 hn        1 2VF      0.319000
     24 H3          2.9110    1.3630   -1.8110 h1        1 2VF      0.095200
     25 H4          3.0360   -0.4490   -1.5420 h1        1 2VF      0.095200
     26 H5          1.3140    3.1100   -2.3510 ha        1 2VF      0.141000
     27 H6         -0.3910    4.4540   -3.5700 ha        1 2VF      0.149000
     28 H7          2.3090   -2.5160   -3.0770 hc        1 2VF      0.082200
     29 H8          1.6130   -2.3940   -1.4100 hc        1 2VF      0.082200
     30 H9         -0.4660   -3.4350   -2.0610 hc        1 2VF      0.076700
     31 H11         0.5430   -3.2300   -4.9840 hc        1 2VF      0.056200
     32 H12        -0.9350   -4.1290   -4.4480 hc        1 2VF      0.056200
     33 H13        -2.0540   -2.1040   -3.7360 hc        1 2VF      0.055700
     34 H14        -1.3290   -1.7470   -5.3550 hc        1 2VF      0.055700
     35 H15        -2.2810    0.8550   -5.1010 ha        1 2VF      0.152000
     36 H131        0.2630    1.8100   -0.5020 hn        1 2VF      0.319000
@<TRIPOS>BOND
     1    1    2 2   
     2    2    3 1   
     3    2    4 1   
     4    3   23 1   
     5    3   36 1   
     6    4    5 1   
     7    4   24 1   
     8    4   25 1   
     9    5    6 1   
    10    5    9 1   
    11    6    7 ar  
    12    6   18 ar  
    13    7    8 ar  
    14    7   26 1   
    15    8   20 ar  
    16    8   27 1   
    17    9   10 1   
    18    9   17 2   
    19   10   11 1   
    20   10   28 1   
    21   10   29 1   
    22   11   12 1   
    23   11   15 1   
    24   11   30 1   
    25   12   13 2   
    26   12   14 1   
    27   14   22 1   
    28   15   16 1   
    29   15   31 1   
    30   15   32 1   
    31   16   17 1   
    32   16   33 1   
    33   16   34 1   
    34   17   18 1   
    35   18   19 ar  
    36   19   20 ar  
    37   19   35 1   
    38   20   21 1   
@<TRIPOS>SUBSTRUCTURE
     1 2VF         1 TEMP              0 ****  ****    0 ROOT
