@<TRIPOS>MOLECULE
2VF
   36    38     1     0     0
SMALL
bcc


@<TRIPOS>ATOM
      1 O2          1.9600   -0.4960    0.8740 o         1 2VF     -0.607100
      2 C13         1.5310    0.2940    0.0090 c         1 2VF      0.628100
      3 N1          0.5200    1.1740    0.2770 n         1 2VF     -0.661000
      4 C12         2.1820    0.3250   -1.3860 c3        1 2VF     -0.035700
      5 N           1.2790    0.1790   -2.4810 na        1 2VF     -0.067400
      6 C3          0.4840    1.2030   -3.0260 ca        1 2VF     -0.051200
      7 C2          0.5480    2.5950   -2.8640 ca        1 2VF     -0.149000
      8 C1         -0.3480    3.3780   -3.5760 ca        1 2VF     -0.104000
      9 C11         0.7670   -1.0490   -2.9490 cc        1 2VF     -0.056300
     10 C10         1.2940   -2.3870   -2.5990 c3        1 2VF     -0.023200
     11 C8          0.2700   -3.4500   -2.9980 c3        1 2VF     -0.149700
     12 C9          0.8900   -4.8180   -2.8790 c         1 2VF      0.623100
     13 O1          1.1250   -5.6170   -3.7840 o         1 2VF     -0.480000
     14 O           1.2370   -5.2800   -1.6390 oh        1 2VF     -0.579100
     15 C7         -0.2540   -3.2220   -4.4100 c3        1 2VF     -0.069400
     16 C6         -1.0050   -1.9060   -4.5260 c3        1 2VF     -0.010200
     17 C5         -0.2850   -0.8240   -3.8400 cd        1 2VF     -0.119400
     18 C4         -0.4910    0.6040   -3.9130 ca        1 2VF     -0.071800
     19 C14        -1.3750    1.4170   -4.6210 ca        1 2VF     -0.075000
     20 C          -1.2950    2.7950   -4.4410 ca        1 2VF     -0.006600
     21 CL         -2.3660    3.8110   -5.2880 cl        1 2VF     -0.094400
     22 H1          0.0730    1.1500    1.1600 hn        1 2VF      0.319000
     23 H2          1.0380   -4.6120   -0.9680 ho        1 2VF      0.427000
     24 H3          2.7350    1.3030   -1.4940 h1        1 2VF      0.092700
     25 H4          2.9300   -0.5200   -1.4190 h1        1 2VF      0.092700
     26 H5          1.2930    3.0580   -2.2030 ha        1 2VF      0.139000
     27 H6         -0.3180    4.4740   -3.4670 ha        1 2VF      0.149000
     28 H7          2.2600   -2.5630   -3.1480 hc        1 2VF      0.070200
     29 H8          1.5110   -2.4590   -1.4980 hc        1 2VF      0.070200
     30 H9         -0.6000   -3.4020   -2.2810 hc        1 2VF      0.078700
     31 H11        -0.9300   -4.0700   -4.6940 hc        1 2VF      0.066200
     32 H12         0.6120   -3.2340   -5.1250 hc        1 2VF      0.066200
     33 H13        -2.0310   -2.0130   -4.0770 hc        1 2VF      0.057700
     34 H14        -1.1440   -1.6520   -5.6120 hc        1 2VF      0.057700
     35 H15        -2.1120    0.9700   -5.3040 ha        1 2VF      0.154000
     36 H131        0.1270    1.7320   -0.4400 hn        1 2VF      0.319000
@<TRIPOS>BOND
     1    1    2 2   
     2    2    3 1   
     3    2    4 1   
     4    3   22 1   
     5    3   36 1   
     6    4    5 1   
     7    4   24 1   
     8    4   25 1   
     9    5    6 1   
    10    5    9 1   
    11    6    7 ar  
    12    6   18 ar  
    13    7    8 ar  
    14    7   26 1   
    15    8   20 ar  
    16    8   27 1   
    17    9   10 1   
    18    9   17 2   
    19   10   11 1   
    20   10   28 1   
    21   10   29 1   
    22   11   12 1   
    23   11   15 1   
    24   11   30 1   
    25   12   13 2   
    26   12   14 1   
    27   14   23 1   
    28   15   16 1   
    29   15   31 1   
    30   15   32 1   
    31   16   17 1   
    32   16   33 1   
    33   16   34 1   
    34   17   18 1   
    35   18   19 ar  
    36   19   20 ar  
    37   19   35 1   
    38   20   21 1   
@<TRIPOS>SUBSTRUCTURE
     1 2VF         1 TEMP              0 ****  ****    0 ROOT
