@<TRIPOS>MOLECULE
2VF
   36    38     1     0     0
SMALL
bcc


@<TRIPOS>ATOM
      1 O2          2.5400    0.0180    0.8560 o         1 2VF     -0.603100
      2 C13         1.8920    0.5810   -0.0480 c         1 2VF      0.630100
      3 N1          0.8290    1.3920    0.2380 nt        1 2VF     -0.664000
      4 C12         2.3400    0.4170   -1.5110 c3        1 2VF     -0.033700
      5 N           1.3010    0.2150   -2.4660 na        1 2VF     -0.069400
      6 C3          0.4750    1.2150   -3.0070 ca        1 2VF     -0.053200
      7 C2          0.5420    2.6130   -2.9040 ca        1 2VF     -0.147000
      8 C1         -0.4040    3.3650   -3.5830 ca        1 2VF     -0.106000
      9 C11         0.7830   -1.0310   -2.8700 cc        1 2VF     -0.042300
     10 C10         1.3550   -2.3520   -2.5230 c3        1 2VF     -0.019200
     11 C8          0.3510   -3.4500   -2.8690 c3        1 2VF     -0.148700
     12 C9          1.0260   -4.7970   -2.8210 c         1 2VF      0.624100
     13 O1          2.2330   -5.0330   -2.8120 o         1 2VF     -0.482000
     14 O           0.2480   -5.9200   -2.7790 oh        1 2VF     -0.577100
     15 C7         -0.2730   -3.2390   -4.2460 c3        1 2VF     -0.077400
     16 C6         -1.0780   -1.9510   -4.3030 c3        1 2VF     -0.004200
     17 C5         -0.3290   -0.8420   -3.6960 cd        1 2VF     -0.138400
     18 C4         -0.5540    0.5800   -3.8030 ca        1 2VF     -0.068800
     19 C14        -1.4890    1.3620   -4.4780 ca        1 2VF     -0.078000
     20 C          -1.4050    2.7450   -4.3570 ca        1 2VF     -0.005600
     21 Cl         -2.5370    3.7260   -5.1650 cl        1 2VF     -0.096400
     22 H1          0.5270    1.4820    1.1770 hn        1 2VF      0.319000
     23 H2          0.2720    1.7840   -0.4780 hn        1 2VF      0.319000
     24 H3          2.9200    1.3450   -1.7890 h1        1 2VF      0.095200
     25 H4          3.0390   -0.4700   -1.5410 h1        1 2VF      0.095200
     26 H5          1.3290    3.1020   -2.3120 ha        1 2VF      0.141000
     27 H6         -0.3710    4.4640   -3.5180 ha        1 2VF      0.149000
     28 H7          2.3080   -2.5180   -3.0990 hc        1 2VF      0.082200
     29 H8          1.6110   -2.4130   -1.4310 hc        1 2VF      0.082200
     30 H9         -0.4700   -3.4410   -2.0960 hc        1 2VF      0.076700
     31 H11         0.5420   -3.2060   -5.0160 hc        1 2VF      0.056200
     32 H12        -0.9390   -4.1060   -4.4920 hc        1 2VF      0.056200
     33 H13        -2.0530   -2.0870   -3.7580 hc        1 2VF      0.055700
     34 H14        -1.3250   -1.7140   -5.3720 hc        1 2VF      0.055700
     35 H15        -2.2700    0.8870   -5.0910 ha        1 2VF      0.152000
     36 H131       -0.6870   -5.6750   -2.7980 ho        1 2VF      0.425000
@<TRIPOS>BOND
     1    1    2 2   
     2    2    3 1   
     3    2    4 1   
     4    3   22 1   
     5    3   23 1   
     6    4    5 1   
     7    4   24 1   
     8    4   25 1   
     9    5    6 1   
    10    5    9 1   
    11    6    7 ar  
    12    6   18 ar  
    13    7    8 ar  
    14    7   26 1   
    15    8   20 ar  
    16    8   27 1   
    17    9   10 1   
    18    9   17 2   
    19   10   11 1   
    20   10   28 1   
    21   10   29 1   
    22   11   12 1   
    23   11   15 1   
    24   11   30 1   
    25   12   13 2   
    26   12   14 1   
    27   14   36 1   
    28   15   16 1   
    29   15   31 1   
    30   15   32 1   
    31   16   17 1   
    32   16   33 1   
    33   16   34 1   
    34   17   18 1   
    35   18   19 ar  
    36   19   20 ar  
    37   19   35 1   
    38   20   21 1   
@<TRIPOS>SUBSTRUCTURE
     1 2VF         1 TEMP              0 ****  ****    0 ROOT
