@<TRIPOS>MOLECULE
2VG
   28    30     1     0     0
SMALL
bcc


@<TRIPOS>ATOM
      1 CL          0.0370   -0.1790   -0.0580 cl        1 2VG     -0.140400
      2 C4          1.7440   -0.0800   -0.0160 ca        1 2VG     -0.014600
      3 C3          2.3970   -0.0910    1.2120 ca        1 2VG     -0.084000
      4 C2          3.7880   -0.0090    1.2260 ca        1 2VG     -0.064800
      5 C5          2.4400    0.0090   -1.2360 ca        1 2VG     -0.132000
      6 C6          3.8250    0.0910   -1.2570 ca        1 2VG     -0.142000
      7 C1          4.5090    0.0820   -0.0340 ca        1 2VG     -0.057200
      8 N           5.8720    0.1550    0.2500 na        1 2VG     -0.191400
      9 C7          6.0380    0.1040    1.6410 cc        1 2VG     -0.012300
     10 C8          4.7860    0.0070    2.2650 cd        1 2VG     -0.154400
     11 C12         4.6360   -0.0520    3.7270 c3        1 2VG     -0.005200
     12 C11         5.9590   -0.4040    4.3920 c3        1 2VG     -0.061400
     13 C9          7.3370    0.1310    2.3520 c3        1 2VG     -0.021200
     14 C10         7.1250    0.3930    3.8360 c3        1 2VG     -0.183700
     15 C13         8.4140    0.0540    4.6330 c         1 2VG      0.915600
     16 O1          8.4410    0.3880    5.8500 o         1 2VG     -0.840800
     17 O2          9.3620   -0.5230    4.0290 o         1 2VG     -0.840800
     18 H1          1.8390   -0.1620    2.1580 ha        1 2VG      0.144000
     19 H2          1.8800    0.0130   -2.1820 ha        1 2VG      0.130000
     20 H3          4.3670    0.1600   -2.2090 ha        1 2VG      0.124000
     21 H4          6.5970    0.1980   -0.4130 hn        1 2VG      0.293700
     22 H5          4.2790    0.9460    4.1030 hc        1 2VG      0.030700
     23 H6          3.8550   -0.8090    4.0050 hc        1 2VG      0.030700
     24 H7          5.8910   -0.2090    5.4940 hc        1 2VG      0.049200
     25 H8          6.1630   -1.4980    4.2530 hc        1 2VG      0.049200
     26 H9          7.8640   -0.8570    2.2310 hc        1 2VG      0.069200
     27 H10         8.0140    0.9180    1.9280 hc        1 2VG      0.069200
     28 H11         6.9180    1.4860    3.9890 hc        1 2VG      0.039700
@<TRIPOS>BOND
     1    1    2 1   
     2    2    3 ar  
     3    2    5 ar  
     4    3    4 ar  
     5    3   18 1   
     6    4    7 ar  
     7    4   10 1   
     8    5    6 ar  
     9    5   19 1   
    10    6    7 ar  
    11    6   20 1   
    12    7    8 1   
    13    8    9 1   
    14    8   21 1   
    15    9   10 2   
    16    9   13 1   
    17   10   11 1   
    18   11   12 1   
    19   11   22 1   
    20   11   23 1   
    21   12   14 1   
    22   12   24 1   
    23   12   25 1   
    24   13   14 1   
    25   13   26 1   
    26   13   27 1   
    27   14   15 1   
    28   14   28 1   
    29   15   16 1   
    30   15   17 1   
@<TRIPOS>SUBSTRUCTURE
     1 2VG         1 TEMP              0 ****  ****    0 ROOT
