@<TRIPOS>MOLECULE
2VG
   28    30     1     0     0
SMALL
bcc


@<TRIPOS>ATOM
      1 Cl          0.0380   -0.2320   -0.0710 cl        1 2VG     -0.140400
      2 C4          1.7440   -0.1020   -0.0250 ca        1 2VG     -0.014600
      3 C3          2.3950   -0.1270    1.2040 ca        1 2VG     -0.084000
      4 C2          3.7840   -0.0190    1.2210 ca        1 2VG     -0.064800
      5 C5          2.4390    0.0270   -1.2410 ca        1 2VG     -0.132000
      6 C6          3.8220    0.1360   -1.2590 ca        1 2VG     -0.142000
      7 C1          4.5050    0.1140   -0.0350 ca        1 2VG     -0.057200
      8 N           5.8660    0.2060    0.2530 na        1 2VG     -0.191400
      9 C7          6.0320    0.1280    1.6430 cc        1 2VG     -0.012300
     10 C8          4.7810   -0.0070    2.2620 cd        1 2VG     -0.154400
     11 C12         4.6300   -0.1000    3.7220 c3        1 2VG     -0.005200
     12 C11         5.9590   -0.4420    4.3810 c3        1 2VG     -0.061400
     13 C9          7.3290    0.1640    2.3560 c3        1 2VG     -0.021200
     14 C10         7.1100    0.3900    3.8450 c3        1 2VG     -0.183700
     15 C13         8.4040    0.0580    4.6360 c         1 2VG      0.915600
     16 O1          8.4230    0.3640    5.8610 o         1 2VG     -0.840800
     17 O2          9.3650   -0.4840    4.0210 o         1 2VG     -0.840800
     18 H1          1.8380   -0.2290    2.1470 ha        1 2VG      0.144000
     19 H2          1.8800    0.0420   -2.1880 ha        1 2VG      0.130000
     20 H3          4.3640    0.2360   -2.2080 ha        1 2VG      0.124000
     21 H4          6.5910    0.2780   -0.4080 hn        1 2VG      0.293700
     22 H5          3.8640   -0.8780    3.9830 hc        1 2VG      0.030700
     23 H6          4.2530    0.8820    4.1190 hc        1 2VG      0.030700
     24 H7          5.8860   -0.2710    5.4870 hc        1 2VG      0.049200
     25 H8          6.1840   -1.5280    4.2190 hc        1 2VG      0.049200
     26 H9          7.8750   -0.8100    2.2140 hc        1 2VG      0.069200
     27 H10         7.9920    0.9730    1.9500 hc        1 2VG      0.069200
     28 H11         6.8820    1.4750    4.0210 hc        1 2VG      0.039700
@<TRIPOS>BOND
     1    1    2 1   
     2    2    3 ar  
     3    2    5 ar  
     4    3    4 ar  
     5    3   18 1   
     6    4    7 ar  
     7    4   10 1   
     8    5    6 ar  
     9    5   19 1   
    10    6    7 ar  
    11    6   20 1   
    12    7    8 1   
    13    8    9 1   
    14    8   21 1   
    15    9   10 2   
    16    9   13 1   
    17   10   11 1   
    18   11   12 1   
    19   11   22 1   
    20   11   23 1   
    21   12   14 1   
    22   12   24 1   
    23   12   25 1   
    24   13   14 1   
    25   13   26 1   
    26   13   27 1   
    27   14   15 1   
    28   14   28 1   
    29   15   16 1   
    30   15   17 1   
@<TRIPOS>SUBSTRUCTURE
     1 2VG         1 TEMP              0 ****  ****    0 ROOT
