@<TRIPOS>MOLECULE
2VH
   48    51     1     0     0
SMALL
bcc


@<TRIPOS>ATOM
      1 F2         -0.0820   -0.3200    0.3080 f         1 2VH     -0.086900
      2 C           1.2620   -0.2790    0.2470 ca        1 2VH      0.154900
      3 C5          2.0360   -0.3390    1.4410 ca        1 2VH      0.103900
      4 F           1.4230   -0.4400    2.6380 f         1 2VH     -0.091900
      5 C4          3.4370   -0.2860    1.3670 ca        1 2VH     -0.083000
      6 C3          4.0820   -0.1880    0.1350 ca        1 2VH     -0.174300
      7 C2          3.3070   -0.1370   -1.0460 ca        1 2VH      0.098900
      8 F1          3.9240   -0.0490   -2.2550 f         1 2VH     -0.156900
      9 C1          1.9080   -0.1770   -0.9960 ca        1 2VH     -0.167000
     10 C6          5.5710   -0.0510    0.0590 c3        1 2VH      0.192400
     11 C10         6.2830   -1.4160   -0.1850 c3        1 2VH      0.075500
     12 N           5.7770   -2.0760   -1.4320 nz        1 2VH     -0.833600
     13 C9          7.7930   -1.1860   -0.2470 c3        1 2VH     -0.115400
     14 C8          8.2550   -0.5550    1.0870 c3        1 2VH      0.164500
     15 C7          7.4360    0.7380    1.2990 c3        1 2VH      0.110400
     16 O           6.0420    0.4340    1.3080 os        1 2VH     -0.379600
     17 N1          9.6900   -0.2840    1.0640 n3        1 2VH     -0.727600
     18 C14        10.5160   -1.5000    0.8510 c3        1 2VH      0.138500
     19 C13        11.5830   -1.4570    1.8910 cc        1 2VH      0.295600
     20 N2         12.6540   -2.1470    2.2920 nd        1 2VH     -0.442800
     21 N3         13.1550   -1.4790    3.3600 na        1 2VH     -0.096100
     22 S          14.4780   -2.0670    4.2640 s6        1 2VH      1.472000
     23 O2         14.1770   -3.3330    4.7580 o         1 2VH     -0.620800
     24 C16        15.6840   -2.1690    3.1010 c3        1 2VH     -0.384300
     25 O1         14.7820   -1.0630    5.1900 o         1 2VH     -0.620800
     26 C15        12.3950   -0.3140    3.6650 cd        1 2VH     -0.034300
     27 C12        11.3730   -0.2670    2.7430 cc        1 2VH     -0.291600
     28 C11        10.1750    0.4570    2.2600 c3        1 2VH      0.249100
     29 H1          4.0270   -0.2960    2.3010 ha        1 2VH      0.190000
     30 H2          1.3130   -0.1150   -1.9220 ha        1 2VH      0.192000
     31 H3          5.8510    0.6690   -0.7650 h1        1 2VH      0.081700
     32 H4          6.0370   -2.1070    0.6780 hx        1 2VH      0.124700
     33 H5          5.9100   -1.4510   -2.2370 hn        1 2VH      0.463133
     34 H6          6.2790   -2.9530   -1.5960 hn        1 2VH      0.463133
     35 H8          8.3260   -2.1590   -0.4150 hc        1 2VH      0.077700
     36 H9          8.0520   -0.4950   -1.0930 hc        1 2VH      0.077700
     37 H10         7.9770   -1.2760    1.9170 h1        1 2VH      0.048700
     38 H11         7.6650    1.5000    0.5100 h1        1 2VH      0.089700
     39 H12         7.6010    1.1770    2.3210 h1        1 2VH      0.089700
     40 H14        10.9510   -1.4270   -0.1830 h1        1 2VH      0.065700
     41 H15         9.9290   -2.4550    0.9400 h1        1 2VH      0.065700
     42 H16        16.6380   -2.5550    3.5510 h1        1 2VH      0.136367
     43 H17        15.4480   -2.8680    2.2580 h1        1 2VH      0.136367
     44 H18        15.9500   -1.1900    2.6280 h1        1 2VH      0.136367
     45 H19        12.6820    0.3350    4.4980 h4        1 2VH      0.213000
     46 H20        10.4250    1.4980    1.9130 h1        1 2VH      0.067700
     47 H21         9.4030    0.5200    3.0770 h1        1 2VH      0.067700
     48 HN3         4.7710   -2.2610   -1.3340 hn        1 2VH      0.463133
@<TRIPOS>BOND
     1    1    2 1   
     2    2    3 ar  
     3    2    9 ar  
     4    3    4 1   
     5    3    5 ar  
     6    5    6 ar  
     7    5   29 1   
     8    6    7 ar  
     9    6   10 1   
    10    7    8 1   
    11    7    9 ar  
    12    9   30 1   
    13   10   11 1   
    14   10   16 1   
    15   10   31 1   
    16   11   12 1   
    17   11   13 1   
    18   11   32 1   
    19   12   33 1   
    20   12   34 1   
    21   12   48 1   
    22   13   14 1   
    23   13   35 1   
    24   13   36 1   
    25   14   15 1   
    26   14   17 1   
    27   14   37 1   
    28   15   16 1   
    29   15   38 1   
    30   15   39 1   
    31   17   18 1   
    32   17   28 1   
    33   18   19 1   
    34   18   40 1   
    35   18   41 1   
    36   19   20 2   
    37   19   27 1   
    38   20   21 1   
    39   21   22 1   
    40   21   26 1   
    41   22   23 2   
    42   22   24 1   
    43   22   25 2   
    44   24   42 1   
    45   24   43 1   
    46   24   44 1   
    47   26   27 2   
    48   26   45 1   
    49   27   28 1   
    50   28   46 1   
    51   28   47 1   
@<TRIPOS>SUBSTRUCTURE
     1 2VH         1 TEMP              0 ****  ****    0 ROOT
