@<TRIPOS>MOLECULE
2VH
   48    51     1     0     0
SMALL
bcc


@<TRIPOS>ATOM
      1 F2         -0.0790   -0.3030    0.2990 f         1 2VH     -0.086900
      2 C           1.2650   -0.2680    0.2380 ca        1 2VH      0.154900
      3 C5          2.0380   -0.3190    1.4330 ca        1 2VH      0.103900
      4 F           1.4250   -0.4060    2.6300 f         1 2VH     -0.091900
      5 C4          3.4400   -0.2700    1.3590 ca        1 2VH     -0.083000
      6 C3          4.0850   -0.1860    0.1260 ca        1 2VH     -0.174300
      7 C2          3.3110   -0.1430   -1.0560 ca        1 2VH      0.098900
      8 F1          3.9280   -0.0680   -2.2650 f         1 2VH     -0.156900
      9 C1          1.9110   -0.1790   -1.0060 ca        1 2VH     -0.167000
     10 C6          5.5740   -0.0530    0.0490 c3        1 2VH      0.192400
     11 C10         6.2830   -1.4220   -0.1820 c3        1 2VH      0.075500
     12 N           5.7750   -2.0920   -1.4240 n4        1 2VH     -0.833600
     13 C9          7.7940   -1.1980   -0.2460 c3        1 2VH     -0.115400
     14 C8          8.2570   -0.5560    1.0830 c3        1 2VH      0.164500
     15 C7          7.4410    0.7420    1.2820 c3        1 2VH      0.110400
     16 O           6.0460    0.4430    1.2940 os        1 2VH     -0.379600
     17 N1          9.6920   -0.2890    1.0590 n3        1 2VH     -0.727600
     18 C14        10.5150   -1.5090    0.8590 c3        1 2VH      0.138500
     19 C13        11.5810   -1.4600    1.8990 cc        1 2VH      0.295600
     20 N2         12.6490   -2.1510    2.3080 nd        1 2VH     -0.442800
     21 N3         13.1510   -1.4740    3.3710 na        1 2VH     -0.096100
     22 S          14.4700   -2.0590    4.2820 s6        1 2VH      1.472000
     23 O2         14.1640   -3.3190    4.7870 o         1 2VH     -0.620800
     24 C16        15.6770   -2.1730    3.1230 c3        1 2VH     -0.384300
     25 O1         14.7750   -1.0470    5.2010 o         1 2VH     -0.620800
     26 C15        12.3940   -0.3040    3.6640 cd        1 2VH     -0.034300
     27 C12        11.3730   -0.2610    2.7400 cc        1 2VH     -0.291600
     28 C11        10.1790    0.4620    2.2480 c3        1 2VH      0.249100
     29 H1          4.0290   -0.2740    2.2930 ha        1 2VH      0.190000
     30 H2          1.3160   -0.1240   -1.9330 ha        1 2VH      0.192000
     31 H3          5.8570    0.6580   -0.7820 h1        1 2VH      0.081700
     32 H4          6.0350   -2.1040    0.6870 hx        1 2VH      0.124700
     33 H5          6.2750   -2.9720   -1.5790 hn        1 2VH      0.463133
     34 H6          4.7690   -2.2730   -1.3240 hn        1 2VH      0.463133
     35 H8          8.3230   -2.1740   -0.4040 hc        1 2VH      0.077700
     36 H9          8.0550   -0.5150   -1.0980 hc        1 2VH      0.077700
     37 H10         7.9750   -1.2670    1.9200 h1        1 2VH      0.048700
     38 H11         7.6070    1.1910    2.3000 h1        1 2VH      0.089700
     39 H12         7.6730    1.4960    0.4860 h1        1 2VH      0.089700
     40 H14         9.9240   -2.4620    0.9550 h1        1 2VH      0.065700
     41 H15        10.9510   -1.4470   -0.1760 h1        1 2VH      0.065700
     42 H16        16.6290   -2.5590    3.5780 h1        1 2VH      0.136367
     43 H17        15.4410   -2.8780    2.2840 h1        1 2VH      0.136367
     44 H18        15.9480   -1.1990    2.6430 h1        1 2VH      0.136367
     45 H19        12.6810    0.3520    4.4920 h4        1 2VH      0.213000
     46 H20         9.4060    0.5360    3.0630 h1        1 2VH      0.067700
     47 H21        10.4330    1.4990    1.8910 h1        1 2VH      0.067700
     48 HN3         5.9100   -1.4750   -2.2330 hn        1 2VH      0.463133
@<TRIPOS>BOND
     1    1    2 1   
     2    2    3 ar  
     3    2    9 ar  
     4    3    4 1   
     5    3    5 ar  
     6    5    6 ar  
     7    5   29 1   
     8    6    7 ar  
     9    6   10 1   
    10    7    8 1   
    11    7    9 ar  
    12    9   30 1   
    13   10   11 1   
    14   10   16 1   
    15   10   31 1   
    16   11   12 1   
    17   11   13 1   
    18   11   32 1   
    19   12   33 1   
    20   12   34 1   
    21   12   48 1   
    22   13   14 1   
    23   13   35 1   
    24   13   36 1   
    25   14   15 1   
    26   14   17 1   
    27   14   37 1   
    28   15   16 1   
    29   15   38 1   
    30   15   39 1   
    31   17   18 1   
    32   17   28 1   
    33   18   19 1   
    34   18   40 1   
    35   18   41 1   
    36   19   20 2   
    37   19   27 1   
    38   20   21 1   
    39   21   22 1   
    40   21   26 1   
    41   22   23 2   
    42   22   24 1   
    43   22   25 2   
    44   24   42 1   
    45   24   43 1   
    46   24   44 1   
    47   26   27 2   
    48   26   45 1   
    49   27   28 1   
    50   28   46 1   
    51   28   47 1   
@<TRIPOS>SUBSTRUCTURE
     1 2VH         1 TEMP              0 ****  ****    0 ROOT
