@<TRIPOS>MOLECULE
2VH
   48    51     1     0     0
SMALL
bcc


@<TRIPOS>ATOM
      1 F2         -0.0810   -0.3260    0.2950 f         1 2VH     -0.086900
      2 C           1.2630   -0.2850    0.2360 ca        1 2VH      0.154900
      3 C5          2.0350   -0.3430    1.4310 ca        1 2VH      0.103900
      4 F           1.4200   -0.4430    2.6270 f         1 2VH     -0.091900
      5 C4          3.4370   -0.2890    1.3590 ca        1 2VH     -0.083000
      6 C3          4.0830   -0.1920    0.1280 ca        1 2VH     -0.174300
      7 C2          3.3100   -0.1420   -1.0540 ca        1 2VH      0.098900
      8 F1          3.9290   -0.0550   -2.2620 f         1 2VH     -0.156900
      9 C1          1.9110   -0.1840   -1.0060 ca        1 2VH     -0.167000
     10 C6          5.5720   -0.0530    0.0540 c3        1 2VH      0.192400
     11 C10         6.2850   -1.4180   -0.1880 c3        1 2VH      0.075500
     12 N           5.7820   -2.0800   -1.4350 n4        1 2VH     -0.833600
     13 C9          7.7960   -1.1880   -0.2480 c3        1 2VH     -0.115400
     14 C8          8.2550   -0.5550    1.0870 c3        1 2VH      0.164500
     15 C7          7.4340    0.7380    1.2960 c3        1 2VH      0.110400
     16 O           6.0410    0.4330    1.3040 os        1 2VH     -0.379600
     17 N1          9.6890   -0.2830    1.0660 n3        1 2VH     -0.727600
     18 C14        10.5170   -1.4980    0.8560 c3        1 2VH      0.138500
     19 C13        11.5830   -1.4530    1.8970 cc        1 2VH      0.295600
     20 N2         12.6530   -2.1420    2.3000 nd        1 2VH     -0.442800
     21 N3         13.1530   -1.4730    3.3680 na        1 2VH     -0.096100
     22 S          14.4750   -2.0590    4.2750 s6        1 2VH      1.472000
     23 O2         14.1740   -3.3250    4.7700 o         1 2VH     -0.620800
     24 C16        15.6820   -2.1610    3.1140 c3        1 2VH     -0.384300
     25 O1         14.7760   -1.0540    5.2000 o         1 2VH     -0.620800
     26 C15        12.3910   -0.3080    3.6710 cd        1 2VH     -0.034300
     27 C12        11.3700   -0.2630    2.7480 cc        1 2VH     -0.291600
     28 C11        10.1730    0.4600    2.2620 c3        1 2VH      0.249100
     29 H1          4.0250   -0.2980    2.2940 ha        1 2VH      0.190000
     30 H2          1.3170   -0.1220   -1.9330 ha        1 2VH      0.192000
     31 H3          5.8530    0.6660   -0.7700 h1        1 2VH      0.081700
     32 H4          6.0390   -2.1080    0.6760 hx        1 2VH      0.124700
     33 H5          4.7760   -2.2650   -1.3380 hn        1 2VH      0.463133
     34 H6          5.9160   -1.4560   -2.2400 hn        1 2VH      0.463133
     35 H8          8.0560   -0.4970   -1.0940 hc        1 2VH      0.077700
     36 H9          8.3290   -2.1600   -0.4130 hc        1 2VH      0.077700
     37 H10         7.9760   -1.2750    1.9170 h1        1 2VH      0.048700
     38 H11         7.6650    1.5000    0.5070 h1        1 2VH      0.089700
     39 H12         7.5980    1.1780    2.3180 h1        1 2VH      0.089700
     40 H14         9.9300   -2.4540    0.9440 h1        1 2VH      0.065700
     41 H15        10.9530   -1.4260   -0.1790 h1        1 2VH      0.065700
     42 H16        15.4480   -2.8610    2.2700 h1        1 2VH      0.136367
     43 H17        16.6360   -2.5450    3.5660 h1        1 2VH      0.136367
     44 H18        15.9480   -1.1820    2.6400 h1        1 2VH      0.136367
     45 H19        12.6760    0.3410    4.5040 h4        1 2VH      0.213000
     46 H20         9.3990    0.5230    3.0770 h1        1 2VH      0.067700
     47 H21        10.4220    1.5010    1.9150 h1        1 2VH      0.067700
     48 HN3         6.2840   -2.9570   -1.5970 hn        1 2VH      0.463133
@<TRIPOS>BOND
     1    1    2 1   
     2    2    3 ar  
     3    2    9 ar  
     4    3    4 1   
     5    3    5 ar  
     6    5    6 ar  
     7    5   29 1   
     8    6    7 ar  
     9    6   10 1   
    10    7    8 1   
    11    7    9 ar  
    12    9   30 1   
    13   10   11 1   
    14   10   16 1   
    15   10   31 1   
    16   11   12 1   
    17   11   13 1   
    18   11   32 1   
    19   12   33 1   
    20   12   34 1   
    21   12   48 1   
    22   13   14 1   
    23   13   35 1   
    24   13   36 1   
    25   14   15 1   
    26   14   17 1   
    27   14   37 1   
    28   15   16 1   
    29   15   38 1   
    30   15   39 1   
    31   17   18 1   
    32   17   28 1   
    33   18   19 1   
    34   18   40 1   
    35   18   41 1   
    36   19   20 2   
    37   19   27 1   
    38   20   21 1   
    39   21   22 1   
    40   21   26 1   
    41   22   23 2   
    42   22   24 1   
    43   22   25 2   
    44   24   42 1   
    45   24   43 1   
    46   24   44 1   
    47   26   27 2   
    48   26   45 1   
    49   27   28 1   
    50   28   46 1   
    51   28   47 1   
@<TRIPOS>SUBSTRUCTURE
     1 2VH         1 TEMP              0 ****  ****    0 ROOT
