@<TRIPOS>MOLECULE
2VJ
   60    63     1     0     0
SMALL
bcc


@<TRIPOS>ATOM
      1 C1          0.0370   -0.5350    0.0830 c3        1 2VJ     -0.091100
      2 C2          1.4360    0.0240    0.0050 c3        1 2VJ     -0.136700
      3 C3          2.0570    0.1780    1.3650 ca        1 2VJ      0.473600
      4 N6          3.2270    0.4570    3.8670 nb        1 2VJ     -0.745000
      5 C7          2.1270    1.1670    3.4660 ca        1 2VJ      0.679300
      6 C9          1.4990    2.1390    4.4620 c3        1 2VJ     -0.093000
      7 C11         0.7190    1.3420    5.5010 c3        1 2VJ     -0.072400
      8 C12         0.0510    2.2680    6.4960 c3        1 2VJ     -0.078400
      9 C13         1.0630    3.1750    7.1630 c3        1 2VJ     -0.082400
     10 C14         1.8560    3.9590    6.1400 c3        1 2VJ     -0.074400
     11 C15         2.5400    3.0290    5.1430 c3        1 2VJ     -0.120700
     12 C20         5.2780    4.1670    2.7070 c3        1 2VJ      0.130300
     13 C21         6.2520    5.1070    3.3640 ca        1 2VJ     -0.115300
     14 C22         5.7830    6.2870    3.9530 ca        1 2VJ     -0.105000
     15 C24         8.0460    6.8980    4.5480 ca        1 2VJ      0.021400
     16 C30         5.7090   -0.9190    4.8120 cc        1 2VJ      0.445800
     17 C33         5.8890   -0.4380    6.9990 cc        1 2VJ     -0.315200
     18 C34         7.1770   -0.5230    6.4040 cd        1 2VJ      0.348200
     19 C4          3.1950   -0.5910    1.6890 ca        1 2VJ     -0.361600
     20 C5          3.7510   -0.4140    2.9750 ca        1 2VJ      0.480600
     21 N8          1.5190    1.0580    2.2460 nb        1 2VJ     -0.690000
     22 C17         3.2590    3.8750    4.0940 c         1 2VJ      0.653100
     23 O18         2.7580    4.9270    3.6470 o         1 2VJ     -0.609100
     24 N19         4.4700    3.4020    3.6160 n         1 2VJ     -0.556900
     25 C23         6.6740    7.1780    4.5420 ca        1 2VJ     -0.120000
     26 C25         8.5180    5.7160    3.9590 ca        1 2VJ      0.012400
     27 C26         7.6170    4.8220    3.3690 ca        1 2VJ     -0.110000
     28 CL7        10.1730    5.3420    3.9470 cl        1 2VJ     -0.072400
     29 CL8         9.1100    8.0030    5.2730 cl        1 2VJ     -0.070400
     30 S29         5.1040   -1.3910    3.3010 ss        1 2VJ     -0.148600
     31 N31         4.9760   -0.7130    5.9800 na        1 2VJ     -0.222900
     32 N35         7.0560   -0.8060    5.0640 nd        1 2VJ     -0.629000
     33 C36         5.4780   -0.1260    8.3630 c         1 2VJ      0.673700
     34 O37         4.3180    0.0010    8.7640 o         1 2VJ     -0.497000
     35 O38         6.4260    0.0540    9.3250 oh        1 2VJ     -0.559100
     36 H1          0.0330   -1.5260    0.5970 hc        1 2VJ      0.044700
     37 H2         -0.6370    0.1570    0.6430 hc        1 2VJ      0.044700
     38 H3         -0.3710   -0.6690   -0.9480 hc        1 2VJ      0.044700
     39 H4          2.0830   -0.6530   -0.6140 hc        1 2VJ      0.062200
     40 H5          1.4140    1.0270   -0.5030 hc        1 2VJ      0.062200
     41 H6          0.7830    2.8140    3.9070 hc        1 2VJ      0.099700
     42 H7          1.4120    0.6470    6.0440 hc        1 2VJ      0.050200
     43 H8         -0.0560    0.7200    4.9830 hc        1 2VJ      0.050200
     44 H9         -0.7220    2.8880    5.9710 hc        1 2VJ      0.047700
     45 H10        -0.4770    1.6560    7.2730 hc        1 2VJ      0.047700
     46 H11         1.7600    2.5600    7.7920 hc        1 2VJ      0.049200
     47 H12         0.5340    3.8890    7.8470 hc        1 2VJ      0.049200
     48 H13         2.6350    4.5780    6.6570 hc        1 2VJ      0.060200
     49 H14         1.1810    4.6630    5.5840 hc        1 2VJ      0.060200
     50 H15         3.2700    2.3870    5.7090 hc        1 2VJ      0.072700
     51 H16         5.8440    3.4370    2.0580 h1        1 2VJ      0.072200
     52 H17         4.5910    4.7740    2.0450 h1        1 2VJ      0.072200
     53 H18         4.7000    6.5020    3.9440 ha        1 2VJ      0.166000
     54 H19         8.1520   -0.3900    6.8740 h4        1 2VJ      0.050100
     55 H20         3.6330   -1.2960    0.9720 ha        1 2VJ      0.165000
     56 H21         7.3110   -0.0660    8.9510 ho        1 2VJ      0.432000
     57 H22         6.3010    8.1060    5.0030 ha        1 2VJ      0.154000
     58 H23         7.9920    3.8950    2.9060 ha        1 2VJ      0.151000
     59 H24         3.9890   -0.6540    6.0750 hn        1 2VJ      0.339700
     60 H192        4.9270    2.6810    4.1230 hn        1 2VJ      0.312500
@<TRIPOS>BOND
     1    1    2 1   
     2    1   36 1   
     3    1   37 1   
     4    1   38 1   
     5    2    3 1   
     6    2   39 1   
     7    2   40 1   
     8    3   19 ar  
     9    3   21 ar  
    10    4    5 ar  
    11    4   20 ar  
    12    5    6 1   
    13    5   21 ar  
    14    6    7 1   
    15    6   11 1   
    16    6   41 1   
    17    7    8 1   
    18    7   42 1   
    19    7   43 1   
    20    8    9 1   
    21    8   44 1   
    22    8   45 1   
    23    9   10 1   
    24    9   46 1   
    25    9   47 1   
    26   10   11 1   
    27   10   48 1   
    28   10   49 1   
    29   11   22 1   
    30   11   50 1   
    31   12   13 1   
    32   12   24 1   
    33   12   51 1   
    34   12   52 1   
    35   13   14 ar  
    36   13   27 ar  
    37   14   25 ar  
    38   14   53 1   
    39   15   25 ar  
    40   15   26 ar  
    41   15   29 1   
    42   16   30 1   
    43   16   31 1   
    44   16   32 2   
    45   17   18 2   
    46   17   31 1   
    47   17   33 1   
    48   18   32 1   
    49   18   54 1   
    50   19   20 ar  
    51   19   55 1   
    52   20   30 1   
    53   22   23 2   
    54   22   24 1   
    55   24   60 1   
    56   25   57 1   
    57   26   27 ar  
    58   26   28 1   
    59   27   58 1   
    60   31   59 1   
    61   33   34 2   
    62   33   35 1   
    63   35   56 1   
@<TRIPOS>SUBSTRUCTURE
     1 2VJ         1 TEMP              0 ****  ****    0 ROOT
