@<TRIPOS>MOLECULE
2VJ
   60    63     1     0     0
SMALL
bcc


@<TRIPOS>ATOM
      1 C1         -1.0180   -0.2810    0.6020 c3        1 2VJ     -0.091100
      2 C2          0.4200   -0.0460    0.2100 c3        1 2VJ     -0.137700
      3 C3          1.3140    0.0800    1.4110 ca        1 2VJ      0.478600
      4 N6          2.9700    0.2860    3.6300 nb        1 2VJ     -0.725000
      5 C7          2.0000    1.1990    3.3340 ca        1 2VJ      0.698300
      6 C9          1.7900    2.3960    4.2590 c3        1 2VJ     -0.082000
      7 C11         0.4400    2.2200    4.9530 c3        1 2VJ     -0.078400
      8 C12         0.1060    3.4110    5.8230 c3        1 2VJ     -0.081400
      9 C13         1.1960    3.6550    6.8410 c3        1 2VJ     -0.081400
     10 C14         2.5420    3.8200    6.1660 c3        1 2VJ     -0.078400
     11 C15         2.8930    2.6110    5.3000 c3        1 2VJ     -0.121700
     12 C20         6.6020    3.5290    5.0170 c3        1 2VJ      0.121300
     13 C21         6.6740    5.0240    4.8780 ca        1 2VJ     -0.124300
     14 C22         6.0430    5.6520    3.7980 ca        1 2VJ     -0.108000
     15 C24         6.8390    7.8010    4.5730 ca        1 2VJ      0.024400
     16 C30         5.4080   -1.2860    4.1100 cc        1 2VJ     -0.044700
     17 C33         6.8830   -1.2340    5.8380 cc        1 2VJ     -0.103900
     18 C34         6.8080    0.0580    5.2690 cd        1 2VJ     -0.145300
     19 C4          2.3100   -0.9020    1.6290 ca        1 2VJ     -0.353600
     20 C5          3.1300   -0.7390    2.7600 ca        1 2VJ      0.480600
     21 N8          1.1650    1.1330    2.2460 nb        1 2VJ     -0.694000
     22 C17         4.2610    2.8250    4.6550 c         1 2VJ      0.657100
     23 O18         4.4510    2.7580    3.4210 o         1 2VJ     -0.635100
     24 N19         5.3440    3.0210    5.5020 n         1 2VJ     -0.558900
     25 C23         6.1250    7.0320    3.6450 ca        1 2VJ     -0.120000
     26 C25         7.4720    7.1730    5.6570 ca        1 2VJ      0.013400
     27 C26         7.3860    5.7840    5.8060 ca        1 2VJ     -0.104000
     28 CL7         8.3470    8.0690    6.8000 cl        1 2VJ     -0.060400
     29 CL8         6.9220    9.4800    4.3620 cl        1 2VJ     -0.062400
     30 S29         4.3580   -1.9090    2.9440 ss        1 2VJ     -0.064200
     31 N31         6.0010   -2.0290    5.1190 na        1 2VJ     -0.082100
     32 N35         5.9110    0.0020    4.2080 na        1 2VJ     -0.094100
     33 C36         7.7330   -1.7580    7.0340 c         1 2VJ      0.955200
     34 O37         7.6140   -2.9820    7.2560 o         1 2VJ     -0.748300
     35 O38         8.4080   -0.8800    7.6040 o         1 2VJ     -0.748300
     36 H1         -1.6410   -0.4060   -0.3170 hc        1 2VJ      0.045700
     37 H2         -1.1160   -1.2030    1.2230 hc        1 2VJ      0.045700
     38 H3         -1.4180    0.5830    1.1850 hc        1 2VJ      0.045700
     39 H4          0.7840   -0.8960   -0.4260 hc        1 2VJ      0.063700
     40 H5          0.4960    0.8920   -0.4050 hc        1 2VJ      0.063700
     41 H6          1.7570    3.3150    3.6040 hc        1 2VJ      0.092700
     42 H7         -0.3660    2.0940    4.1830 hc        1 2VJ      0.058700
     43 H8          0.4640    1.2890    5.5790 hc        1 2VJ      0.058700
     44 H9         -0.0230    4.3230    5.1810 hc        1 2VJ      0.050200
     45 H10        -0.8680    3.2280    6.3470 hc        1 2VJ      0.050200
     46 H11         1.2400    2.7950    7.5600 hc        1 2VJ      0.050200
     47 H12         0.9650    4.5780    7.4330 hc        1 2VJ      0.050200
     48 H13         2.5320    4.7420    5.5270 hc        1 2VJ      0.050200
     49 H14         3.3140    3.9690    6.9650 hc        1 2VJ      0.050200
     50 H15         2.9590    1.6980    5.9580 hc        1 2VJ      0.093700
     51 H16         6.8030    3.0670    4.0050 h1        1 2VJ      0.072700
     52 H17         7.4030    3.1840    5.7350 h1        1 2VJ      0.072700
     53 H18         5.4810    5.0440    3.0690 ha        1 2VJ      0.160000
     54 H19         7.3310    0.9690    5.5710 h4        1 2VJ      0.221000
     55 H20         2.4420   -1.7440    0.9380 ha        1 2VJ      0.166000
     56 H21         5.5960    0.7790    3.6630 hn        1 2VJ      0.355700
     57 H22         5.6300    7.5230    2.7920 ha        1 2VJ      0.155000
     58 H23         7.8900    5.2940    6.6550 ha        1 2VJ      0.156000
     59 H24         5.8650   -3.0030    5.2930 hn        1 2VJ      0.359700
     60 H192        5.1520    3.1950    6.4630 hn        1 2VJ      0.313500
@<TRIPOS>BOND
     1    1    2 1   
     2    1   36 1   
     3    1   37 1   
     4    1   38 1   
     5    2    3 1   
     6    2   39 1   
     7    2   40 1   
     8    3   19 ar  
     9    3   21 ar  
    10    4    5 ar  
    11    4   20 ar  
    12    5    6 1   
    13    5   21 ar  
    14    6    7 1   
    15    6   11 1   
    16    6   41 1   
    17    7    8 1   
    18    7   42 1   
    19    7   43 1   
    20    8    9 1   
    21    8   44 1   
    22    8   45 1   
    23    9   10 1   
    24    9   46 1   
    25    9   47 1   
    26   10   11 1   
    27   10   48 1   
    28   10   49 1   
    29   11   22 1   
    30   11   50 1   
    31   12   13 1   
    32   12   24 1   
    33   12   51 1   
    34   12   52 1   
    35   13   14 ar  
    36   13   27 ar  
    37   14   25 ar  
    38   14   53 1   
    39   15   25 ar  
    40   15   26 ar  
    41   15   29 1   
    42   16   30 1   
    43   16   31 2   
    44   16   32 1   
    45   17   18 2   
    46   17   31 1   
    47   17   33 1   
    48   18   32 1   
    49   18   54 1   
    50   19   20 ar  
    51   19   55 1   
    52   20   30 1   
    53   22   23 2   
    54   22   24 1   
    55   24   60 1   
    56   25   57 1   
    57   26   27 ar  
    58   26   28 1   
    59   27   58 1   
    60   31   59 1   
    61   32   56 1   
    62   33   34 1   
    63   33   35 1   
@<TRIPOS>SUBSTRUCTURE
     1 2VJ         1 TEMP              0 ****  ****    0 ROOT
