@<TRIPOS>MOLECULE
2VJ
   60    63     1     0     0
SMALL
bcc


@<TRIPOS>ATOM
      1 C1         -1.0130   -0.2810    0.5950 c3        1 2VJ     -0.091100
      2 C2          0.4290   -0.0610    0.2110 c3        1 2VJ     -0.137700
      3 C3          1.3170    0.0700    1.4160 ca        1 2VJ      0.478600
      4 N6          2.9600    0.2840    3.6440 nb        1 2VJ     -0.725000
      5 C7          1.9980    1.2010    3.3340 ca        1 2VJ      0.698300
      6 C9          1.7910    2.4090    4.2470 c3        1 2VJ     -0.082000
      7 C11         0.4350    2.2480    4.9330 c3        1 2VJ     -0.078400
      8 C12         0.1040    3.4500    5.7900 c3        1 2VJ     -0.081400
      9 C13         1.1900    3.6950    6.8130 c3        1 2VJ     -0.081400
     10 C14         2.5400    3.8450    6.1450 c3        1 2VJ     -0.078400
     11 C15         2.8880    2.6250    5.2920 c3        1 2VJ     -0.121700
     12 C20         6.6060    3.5150    5.0240 c3        1 2VJ      0.121300
     13 C21         6.6890    5.0080    4.8710 ca        1 2VJ     -0.124300
     14 C22         6.0690    5.6300    3.7810 ca        1 2VJ     -0.108000
     15 C24         6.8760    7.7800    4.5400 ca        1 2VJ      0.024400
     16 C30         5.3840   -1.3000    4.1550 cc        1 2VJ     -0.044700
     17 C33         6.8470   -1.2430    5.8910 cc        1 2VJ     -0.103900
     18 C34         6.7850    0.0440    5.3100 cd        1 2VJ     -0.145300
     19 C4          2.3040   -0.9180    1.6490 ca        1 2VJ     -0.353600
     20 C5          3.1170   -0.7490    2.7840 ca        1 2VJ      0.480600
     21 N8          1.1690    1.1310    2.2410 nb        1 2VJ     -0.694000
     22 C17         4.2610    2.8240    4.6540 c         1 2VJ      0.657100
     23 O18         4.4590    2.7430    3.4220 o         1 2VJ     -0.635100
     24 N19         5.3410    3.0200    5.5060 ns        1 2VJ     -0.558900
     25 C23         6.1620    7.0080    3.6160 ca        1 2VJ     -0.120000
     26 C25         7.4980    7.1580    5.6340 ca        1 2VJ      0.013400
     27 C26         7.4010    5.7710    5.7960 ca        1 2VJ     -0.104000
     28 Cl7         8.3720    8.0590    6.7740 cl        1 2VJ     -0.060400
     29 Cl8         6.9730    9.4570    4.3140 cl        1 2VJ     -0.062400
     30 S29         4.3370   -1.9260    2.9870 ss        1 2VJ     -0.064200
     31 N31         5.9640   -2.0380    5.1740 na        1 2VJ     -0.082100
     32 N35         5.8950   -0.0150    4.2440 na        1 2VJ     -0.094100
     33 C36         7.6860   -1.7610    7.0970 c         1 2VJ      0.955200
     34 O37         7.5580   -2.9820    7.3300 o         1 2VJ     -0.748300
     35 O38         8.3640   -0.8830    7.6640 o         1 2VJ     -0.748300
     36 H1         -1.6310   -0.4100   -0.3270 hc        1 2VJ      0.045700
     37 H2         -1.1220   -1.1970    1.2250 hc        1 2VJ      0.045700
     38 H3         -1.4100    0.5920    1.1680 hc        1 2VJ      0.045700
     39 H4          0.7920   -0.9200   -0.4150 hc        1 2VJ      0.063700
     40 H5          0.5160    0.8710   -0.4130 hc        1 2VJ      0.063700
     41 H6          1.7680    3.3220    3.5830 hc        1 2VJ      0.092700
     42 H7          0.4490    1.3230    5.5680 hc        1 2VJ      0.058700
     43 H8         -0.3670    2.1200    4.1590 hc        1 2VJ      0.058700
     44 H9         -0.8740    3.2770    6.3100 hc        1 2VJ      0.050200
     45 H10        -0.0150    4.3560    5.1390 hc        1 2VJ      0.050200
     46 H11         0.9610    4.6250    7.3950 hc        1 2VJ      0.050200
     47 H12         1.2230    2.8410    7.5400 hc        1 2VJ      0.050200
     48 H13         2.5410    4.7610    5.4970 hc        1 2VJ      0.050200
     49 H14         3.3090    3.9950    6.9470 hc        1 2VJ      0.050200
     50 H15         2.9440    1.7180    5.9580 hc        1 2VJ      0.093700
     51 H16         6.8100    3.0420    4.0180 h1        1 2VJ      0.072700
     52 H17         7.4000    3.1710    5.7500 h1        1 2VJ      0.072700
     53 H18         5.5070    5.0180    3.0550 ha        1 2VJ      0.160000
     54 H19         7.3120    0.9550    5.6070 h4        1 2VJ      0.221000
     55 H20         2.4350   -1.7670    0.9670 ha        1 2VJ      0.166000
     56 H21         5.5890    0.7600    3.6890 hn        1 2VJ      0.355700
     57 H22         5.6760    7.4940    2.7550 ha        1 2VJ      0.155000
     58 H23         7.8960    5.2870    6.6530 ha        1 2VJ      0.156000
     59 H24         5.8200   -3.0090    5.3560 hn        1 2VJ      0.359700
     60 H192        5.1440    3.2050    6.4640 hn        1 2VJ      0.313500
@<TRIPOS>BOND
     1    1    2 1   
     2    1   36 1   
     3    1   37 1   
     4    1   38 1   
     5    2    3 1   
     6    2   39 1   
     7    2   40 1   
     8    3   19 ar  
     9    3   21 ar  
    10    4    5 ar  
    11    4   20 ar  
    12    5    6 1   
    13    5   21 ar  
    14    6    7 1   
    15    6   11 1   
    16    6   41 1   
    17    7    8 1   
    18    7   42 1   
    19    7   43 1   
    20    8    9 1   
    21    8   44 1   
    22    8   45 1   
    23    9   10 1   
    24    9   46 1   
    25    9   47 1   
    26   10   11 1   
    27   10   48 1   
    28   10   49 1   
    29   11   22 1   
    30   11   50 1   
    31   12   13 1   
    32   12   24 1   
    33   12   51 1   
    34   12   52 1   
    35   13   14 ar  
    36   13   27 ar  
    37   14   25 ar  
    38   14   53 1   
    39   15   25 ar  
    40   15   26 ar  
    41   15   29 1   
    42   16   30 1   
    43   16   31 2   
    44   16   32 1   
    45   17   18 2   
    46   17   31 1   
    47   17   33 1   
    48   18   32 1   
    49   18   54 1   
    50   19   20 ar  
    51   19   55 1   
    52   20   30 1   
    53   22   23 2   
    54   22   24 1   
    55   24   60 1   
    56   25   57 1   
    57   26   27 ar  
    58   26   28 1   
    59   27   58 1   
    60   31   59 1   
    61   32   56 1   
    62   33   34 1   
    63   33   35 1   
@<TRIPOS>SUBSTRUCTURE
     1 2VJ         1 TEMP              0 ****  ****    0 ROOT
