@<TRIPOS>MOLECULE
2VK
   65    68     1     0     0
SMALL
bcc


@<TRIPOS>ATOM
      1 CAK         0.2910    0.1280   -0.1990 ca        1 2VK     -0.190000
      2 CAI         1.6800    0.2160   -0.1530 ca        1 2VK     -0.055500
      3 CAY         2.3550    0.1230    1.0710 ca        1 2VK     -0.060000
      4 CAC         3.7710    0.2130    1.1120 cg        1 2VK      0.239800
      5 NAA         4.9320    0.2860    1.1460 n1        1 2VK     -0.371800
      6 CAJ         1.6280   -0.0590    2.2600 ca        1 2VK     -0.055500
      7 CAL         0.2450   -0.1480    2.2280 ca        1 2VK     -0.190000
      8 CAZ        -0.4270   -0.0540    0.9910 ca        1 2VK      0.155100
      9 OAX        -1.7960   -0.1580    1.0730 os        1 2VK     -0.324900
     10 CAP        -2.5140   -0.0510   -0.1650 c3        1 2VK      0.127400
     11 CAO        -3.9820   -0.1770    0.2040 c3        1 2VK     -0.088400
     12 CAU        -4.8130   -0.2130   -1.0770 c3        1 2VK      0.174800
     13 NBD        -6.2440   -0.0590   -0.8520 n3        1 2VK     -0.727600
     14 CAW        -6.9580    0.1470   -2.1080 c3        1 2VK      0.170300
     15 CAT        -8.4660    0.2910   -1.9340 c3        1 2VK     -0.076900
     16 CAV        -6.8090   -1.1350   -0.0510 c3        1 2VK      0.170300
     17 CAS        -8.3170   -1.0130    0.1660 c3        1 2VK     -0.076900
     18 CBC        -9.0430   -0.8840   -1.1610 c3        1 2VK     -0.047700
     19 CBE       -10.5790   -0.7450   -1.0050 c3        1 2VK      0.213100
     20 CBB       -11.1850   -2.0480   -0.4440 c3        1 2VK     -0.092700
     21 CAQ       -11.0350   -3.2290   -1.4040 c3        1 2VK     -0.078900
     22 CAM       -12.2680   -4.1040   -1.2300 c3        1 2VK     -0.079400
     23 CAN       -13.3110   -3.2820   -0.4830 c3        1 2VK     -0.079400
     24 CAR       -12.6790   -1.9420   -0.1350 c3        1 2VK     -0.078900
     25 OAB       -11.0450   -0.5380   -2.3440 oh        1 2VK     -0.600800
     26 CBA       -10.9500    0.4450   -0.1460 ca        1 2VK     -0.109300
     27 CAG       -11.2460    1.6710   -0.7560 ca        1 2VK     -0.120500
     28 CAE       -11.5870    2.7820    0.0140 ca        1 2VK     -0.132000
     29 CAD       -11.6300    2.6840    1.4040 ca        1 2VK     -0.126000
     30 CAF       -11.3270    1.4700    2.0200 ca        1 2VK     -0.132000
     31 CAH       -10.9890    0.3570    1.2500 ca        1 2VK     -0.120500
     32 H1         -0.2230    0.2020   -1.1670 ha        1 2VK      0.150500
     33 H2          2.2490    0.3590   -1.0850 ha        1 2VK      0.146000
     34 H3          2.1600   -0.1310    3.2210 ha        1 2VK      0.146000
     35 H4         -0.3390   -0.2900    3.1480 ha        1 2VK      0.150500
     36 H5         -2.2970    0.9430   -0.6380 h1        1 2VK      0.042200
     37 H6         -2.1940   -0.8770   -0.8530 h1        1 2VK      0.042200
     38 H7         -4.1340   -1.1140    0.8000 hc        1 2VK      0.066700
     39 H8         -4.2820    0.6870    0.8510 hc        1 2VK      0.066700
     40 H9         -4.5770   -1.1730   -1.6270 h1        1 2VK      0.029700
     41 H10        -4.4860    0.6420   -1.7370 h1        1 2VK      0.029700
     42 H12        -6.5590    1.0940   -2.5700 h1        1 2VK      0.029450
     43 H13        -6.7600   -0.6970   -2.8350 h1        1 2VK      0.029450
     44 H14        -8.7050    1.2450   -1.3950 hc        1 2VK      0.057200
     45 H15        -8.9380    0.3450   -2.9500 hc        1 2VK      0.057200
     46 H16        -6.5940   -2.1460   -0.5090 h1        1 2VK      0.029450
     47 H17        -6.3060   -1.1040    0.9570 h1        1 2VK      0.029450
     48 H18        -8.6560   -1.9270    0.7180 hc        1 2VK      0.057200
     49 H19        -8.5370   -0.1190    0.8070 hc        1 2VK      0.057200
     50 H20        -8.8710   -1.8230   -1.7620 hc        1 2VK      0.057700
     51 H21       -10.6440   -2.2940    0.5100 hc        1 2VK      0.056700
     52 H22       -10.9630   -2.8620   -2.4610 hc        1 2VK      0.047700
     53 H23       -10.1010   -3.8010   -1.1810 hc        1 2VK      0.047700
     54 H24       -12.6590   -4.4360   -2.2240 hc        1 2VK      0.041450
     55 H25       -12.0130   -5.0260   -0.6490 hc        1 2VK      0.041450
     56 H26       -13.6350   -3.8150    0.4460 hc        1 2VK      0.041450
     57 H27       -14.2230   -3.1330   -1.1130 hc        1 2VK      0.041450
     58 H28       -12.8350   -1.6910    0.9450 hc        1 2VK      0.047700
     59 H29       -13.1540   -1.1210   -0.7300 hc        1 2VK      0.047700
     60 H30       -12.0090   -0.5400   -2.3120 ho        1 2VK      0.405000
     61 H31       -11.2000    1.7540   -1.8540 ha        1 2VK      0.139000
     62 H32       -11.8190    3.7380   -0.4780 ha        1 2VK      0.131500
     63 H33       -11.8970    3.5600    2.0130 ha        1 2VK      0.132000
     64 H34       -11.3530    1.3870    3.1160 ha        1 2VK      0.131500
     65 H35       -10.7490   -0.5930    1.7520 ha        1 2VK      0.139000
@<TRIPOS>BOND
     1    1    2 ar  
     2    1    8 ar  
     3    1   32 1   
     4    2    3 ar  
     5    2   33 1   
     6    3    4 1   
     7    3    6 ar  
     8    4    5 3   
     9    6    7 ar  
    10    6   34 1   
    11    7    8 ar  
    12    7   35 1   
    13    8    9 1   
    14    9   10 1   
    15   10   11 1   
    16   10   36 1   
    17   10   37 1   
    18   11   12 1   
    19   11   38 1   
    20   11   39 1   
    21   12   13 1   
    22   12   40 1   
    23   12   41 1   
    24   13   14 1   
    25   13   16 1   
    26   14   15 1   
    27   14   42 1   
    28   14   43 1   
    29   15   18 1   
    30   15   44 1   
    31   15   45 1   
    32   16   17 1   
    33   16   46 1   
    34   16   47 1   
    35   17   18 1   
    36   17   48 1   
    37   17   49 1   
    38   18   19 1   
    39   18   50 1   
    40   19   20 1   
    41   19   25 1   
    42   19   26 1   
    43   20   21 1   
    44   20   24 1   
    45   20   51 1   
    46   21   22 1   
    47   21   52 1   
    48   21   53 1   
    49   22   23 1   
    50   22   54 1   
    51   22   55 1   
    52   23   24 1   
    53   23   56 1   
    54   23   57 1   
    55   24   58 1   
    56   24   59 1   
    57   25   60 1   
    58   26   27 ar  
    59   26   31 ar  
    60   27   28 ar  
    61   27   61 1   
    62   28   29 ar  
    63   28   62 1   
    64   29   30 ar  
    65   29   63 1   
    66   30   31 ar  
    67   30   64 1   
    68   31   65 1   
@<TRIPOS>SUBSTRUCTURE
     1 2VK         1 TEMP              0 ****  ****    0 ROOT
