@<TRIPOS>MOLECULE
2VK
   65    68     1     0     0
SMALL
bcc


@<TRIPOS>ATOM
      1 CAK         0.2900    0.1290   -0.1990 ca        1 2VK     -0.190000
      2 CAI         1.6800    0.2160   -0.1530 ca        1 2VK     -0.055500
      3 CAY         2.3550    0.1180    1.0700 ca        1 2VK     -0.060000
      4 CAC         3.7710    0.2070    1.1110 cg        1 2VK      0.239800
      5 NAA         4.9320    0.2800    1.1450 n1        1 2VK     -0.371800
      6 CAJ         1.6290   -0.0670    2.2590 ca        1 2VK     -0.055500
      7 CAL         0.2450   -0.1550    2.2270 ca        1 2VK     -0.190000
      8 CAZ        -0.4270   -0.0560    0.9910 ca        1 2VK      0.155100
      9 OAX        -1.7960   -0.1590    1.0730 os        1 2VK     -0.324900
     10 CAP        -2.5140   -0.0480   -0.1650 c3        1 2VK      0.127400
     11 CAO        -3.9830   -0.1760    0.2040 c3        1 2VK     -0.088400
     12 CAU        -4.8140   -0.2100   -1.0770 c3        1 2VK      0.174800
     13 NBD        -6.2450   -0.0560   -0.8520 n3        1 2VK     -0.727600
     14 CAW        -6.9580    0.1480   -2.1080 c3        1 2VK      0.170300
     15 CAT        -8.4670    0.2920   -1.9340 c3        1 2VK     -0.076900
     16 CAV        -6.8090   -1.1320   -0.0500 c3        1 2VK      0.170300
     17 CAS        -8.3170   -1.0110    0.1660 c3        1 2VK     -0.076900
     18 CBC        -9.0430   -0.8840   -1.1600 c3        1 2VK     -0.047700
     19 CBE       -10.5790   -0.7450   -1.0050 c3        1 2VK      0.213100
     20 CBB       -11.1840   -2.0480   -0.4430 c3        1 2VK     -0.092700
     21 CAQ       -11.0330   -3.2300   -1.4010 c3        1 2VK     -0.078900
     22 CAM       -12.2650   -4.1060   -1.2260 c3        1 2VK     -0.079400
     23 CAN       -13.3090   -3.2840   -0.4810 c3        1 2VK     -0.079400
     24 CAR       -12.6790   -1.9420   -0.1340 c3        1 2VK     -0.078900
     25 OAB       -11.0450   -0.5400   -2.3450 oh        1 2VK     -0.600800
     26 CBA       -10.9510    0.4450   -0.1480 ca        1 2VK     -0.109300
     27 CAG       -11.2480    1.6710   -0.7590 ca        1 2VK     -0.120500
     28 CAE       -11.5900    2.7820    0.0090 ca        1 2VK     -0.132000
     29 CAD       -11.6330    2.6860    1.3990 ca        1 2VK     -0.126000
     30 CAF       -11.3290    1.4730    2.0170 ca        1 2VK     -0.132000
     31 CAH       -10.9900    0.3600    1.2490 ca        1 2VK     -0.120500
     32 H1         -0.2240    0.2080   -1.1670 ha        1 2VK      0.150500
     33 H2          2.2480    0.3620   -1.0840 ha        1 2VK      0.146000
     34 H3          2.1610   -0.1430    3.2200 ha        1 2VK      0.146000
     35 H4         -0.3380   -0.3000    3.1470 ha        1 2VK      0.150500
     36 H5         -2.2980    0.9460   -0.6350 h1        1 2VK      0.042200
     37 H6         -2.1940   -0.8730   -0.8550 h1        1 2VK      0.042200
     38 H7         -4.2820    0.6880    0.8520 hc        1 2VK      0.066700
     39 H8         -4.1340   -1.1130    0.7990 hc        1 2VK      0.066700
     40 H9         -4.4870    0.6450   -1.7360 h1        1 2VK      0.029700
     41 H10        -4.5780   -1.1690   -1.6280 h1        1 2VK      0.029700
     42 H12        -6.7600   -0.6960   -2.8340 h1        1 2VK      0.029450
     43 H13        -6.5600    1.0950   -2.5710 h1        1 2VK      0.029450
     44 H14        -8.7060    1.2460   -1.3960 hc        1 2VK      0.057200
     45 H15        -8.9380    0.3440   -2.9500 hc        1 2VK      0.057200
     46 H16        -6.5930   -2.1430   -0.5070 h1        1 2VK      0.029450
     47 H17        -6.3060   -1.0990    0.9580 h1        1 2VK      0.029450
     48 H18        -8.5380   -0.1170    0.8070 hc        1 2VK      0.057200
     49 H19        -8.6560   -1.9240    0.7190 hc        1 2VK      0.057200
     50 H20        -8.8700   -1.8220   -1.7600 hc        1 2VK      0.057700
     51 H21       -10.6440   -2.2920    0.5110 hc        1 2VK      0.056700
     52 H22       -10.0990   -3.8010   -1.1770 hc        1 2VK      0.047700
     53 H23       -10.9610   -2.8650   -2.4580 hc        1 2VK      0.047700
     54 H24       -12.6560   -4.4390   -2.2200 hc        1 2VK      0.041450
     55 H25       -12.0100   -5.0270   -0.6440 hc        1 2VK      0.041450
     56 H26       -14.2210   -3.1360   -1.1110 hc        1 2VK      0.041450
     57 H27       -13.6330   -3.8160    0.4490 hc        1 2VK      0.041450
     58 H28       -12.8350   -1.6900    0.9450 hc        1 2VK      0.047700
     59 H29       -13.1540   -1.1230   -0.7310 hc        1 2VK      0.047700
     60 H30       -12.0080   -0.5430   -2.3130 ho        1 2VK      0.405000
     61 H31       -11.2010    1.7520   -1.8570 ha        1 2VK      0.139000
     62 H32       -11.8220    3.7370   -0.4840 ha        1 2VK      0.131500
     63 H33       -11.9010    3.5630    2.0060 ha        1 2VK      0.132000
     64 H34       -11.3560    1.3920    3.1130 ha        1 2VK      0.131500
     65 H35       -10.7490   -0.5890    1.7520 ha        1 2VK      0.139000
@<TRIPOS>BOND
     1    1    2 ar  
     2    1    8 ar  
     3    1   32 1   
     4    2    3 ar  
     5    2   33 1   
     6    3    4 1   
     7    3    6 ar  
     8    4    5 3   
     9    6    7 ar  
    10    6   34 1   
    11    7    8 ar  
    12    7   35 1   
    13    8    9 1   
    14    9   10 1   
    15   10   11 1   
    16   10   36 1   
    17   10   37 1   
    18   11   12 1   
    19   11   38 1   
    20   11   39 1   
    21   12   13 1   
    22   12   40 1   
    23   12   41 1   
    24   13   14 1   
    25   13   16 1   
    26   14   15 1   
    27   14   42 1   
    28   14   43 1   
    29   15   18 1   
    30   15   44 1   
    31   15   45 1   
    32   16   17 1   
    33   16   46 1   
    34   16   47 1   
    35   17   18 1   
    36   17   48 1   
    37   17   49 1   
    38   18   19 1   
    39   18   50 1   
    40   19   20 1   
    41   19   25 1   
    42   19   26 1   
    43   20   21 1   
    44   20   24 1   
    45   20   51 1   
    46   21   22 1   
    47   21   52 1   
    48   21   53 1   
    49   22   23 1   
    50   22   54 1   
    51   22   55 1   
    52   23   24 1   
    53   23   56 1   
    54   23   57 1   
    55   24   58 1   
    56   24   59 1   
    57   25   60 1   
    58   26   27 ar  
    59   26   31 ar  
    60   27   28 ar  
    61   27   61 1   
    62   28   29 ar  
    63   28   62 1   
    64   29   30 ar  
    65   29   63 1   
    66   30   31 ar  
    67   30   64 1   
    68   31   65 1   
@<TRIPOS>SUBSTRUCTURE
     1 2VK         1 TEMP              0 ****  ****    0 ROOT
