@<TRIPOS>MOLECULE
2VK
   65    68     1     0     0
SMALL
bcc


@<TRIPOS>ATOM
      1 CAK         0.2910    0.1280   -0.2020 ca        1 2VK     -0.190000
      2 CAI         1.6800    0.2160   -0.1560 ca        1 2VK     -0.055500
      3 CAY         2.3550    0.1230    1.0670 ca        1 2VK     -0.060000
      4 CAC         3.7720    0.2130    1.1080 cg        1 2VK      0.239800
      5 NAA         4.9320    0.2860    1.1420 n1        1 2VK     -0.371800
      6 CAJ         1.6290   -0.0590    2.2560 ca        1 2VK     -0.055500
      7 CAL         0.2450   -0.1480    2.2240 ca        1 2VK     -0.190000
      8 CAZ        -0.4260   -0.0540    0.9880 ca        1 2VK      0.155100
      9 OAX        -1.7960   -0.1580    1.0710 os        1 2VK     -0.324900
     10 CAP        -2.5140   -0.0510   -0.1680 c3        1 2VK      0.127400
     11 CAO        -3.9820   -0.1770    0.2020 c3        1 2VK     -0.088400
     12 CAU        -4.8140   -0.2120   -1.0790 c3        1 2VK      0.174800
     13 NBD        -6.2440   -0.0580   -0.8540 n3        1 2VK     -0.727600
     14 CAW        -6.9580    0.1450   -2.1090 c3        1 2VK      0.170300
     15 CAT        -8.4670    0.2900   -1.9350 c3        1 2VK     -0.076900
     16 CAV        -6.8090   -1.1330   -0.0500 c3        1 2VK      0.170300
     17 CAS        -8.3160   -1.0110    0.1670 c3        1 2VK     -0.076900
     18 CBC        -9.0440   -0.8850   -1.1600 c3        1 2VK     -0.047700
     19 CBE       -10.5790   -0.7450   -1.0040 c3        1 2VK      0.213100
     20 CBB       -11.1850   -2.0480   -0.4410 c3        1 2VK     -0.092700
     21 CAQ       -11.0340   -3.2310   -1.3990 c3        1 2VK     -0.078900
     22 CAM       -12.2670   -4.1060   -1.2230 c3        1 2VK     -0.079400
     23 CAN       -13.3100   -3.2830   -0.4780 c3        1 2VK     -0.079400
     24 CAR       -12.6790   -1.9420   -0.1320 c3        1 2VK     -0.078900
     25 OAB       -11.0450   -0.5410   -2.3440 oh        1 2VK     -0.600800
     26 CBA       -10.9500    0.4450   -0.1470 ca        1 2VK     -0.109300
     27 CAG       -11.2480    1.6710   -0.7580 ca        1 2VK     -0.120500
     28 CAE       -11.5880    2.7820    0.0100 ca        1 2VK     -0.132000
     29 CAD       -11.6300    2.6860    1.4000 ca        1 2VK     -0.126000
     30 CAF       -11.3270    1.4740    2.0180 ca        1 2VK     -0.132000
     31 CAH       -10.9890    0.3600    1.2500 ca        1 2VK     -0.120500
     32 H1         -0.2230    0.2030   -1.1700 ha        1 2VK      0.150500
     33 H2          2.2480    0.3600   -1.0880 ha        1 2VK      0.146000
     34 H3          2.1610   -0.1320    3.2180 ha        1 2VK      0.146000
     35 H4         -0.3380   -0.2910    3.1450 ha        1 2VK      0.150500
     36 H5         -2.1940   -0.8770   -0.8560 h1        1 2VK      0.042200
     37 H6         -2.2970    0.9430   -0.6400 h1        1 2VK      0.042200
     38 H7         -4.2820    0.6870    0.8490 hc        1 2VK      0.066700
     39 H8         -4.1340   -1.1140    0.7980 hc        1 2VK      0.066700
     40 H9         -4.4870    0.6420   -1.7390 h1        1 2VK      0.029700
     41 H10        -4.5780   -1.1720   -1.6290 h1        1 2VK      0.029700
     42 H12        -6.5610    1.0920   -2.5730 h1        1 2VK      0.029450
     43 H13        -6.7610   -0.6990   -2.8350 h1        1 2VK      0.029450
     44 H14        -8.7050    1.2440   -1.3970 hc        1 2VK      0.057200
     45 H15        -8.9390    0.3420   -2.9510 hc        1 2VK      0.057200
     46 H16        -6.3050   -1.1000    0.9580 h1        1 2VK      0.029450
     47 H17        -6.5940   -2.1450   -0.5070 h1        1 2VK      0.029450
     48 H18        -8.6550   -1.9240    0.7200 hc        1 2VK      0.057200
     49 H19        -8.5370   -0.1170    0.8060 hc        1 2VK      0.057200
     50 H20        -8.8710   -1.8240   -1.7590 hc        1 2VK      0.057700
     51 H21       -10.6440   -2.2920    0.5130 hc        1 2VK      0.056700
     52 H22       -10.1000   -3.8020   -1.1750 hc        1 2VK      0.047700
     53 H23       -10.9630   -2.8660   -2.4560 hc        1 2VK      0.047700
     54 H24       -12.0110   -5.0270   -0.6410 hc        1 2VK      0.041450
     55 H25       -12.6580   -4.4390   -2.2160 hc        1 2VK      0.041450
     56 H26       -13.6340   -3.8140    0.4520 hc        1 2VK      0.041450
     57 H27       -14.2220   -3.1350   -1.1090 hc        1 2VK      0.041450
     58 H28       -13.1540   -1.1230   -0.7280 hc        1 2VK      0.047700
     59 H29       -12.8350   -1.6890    0.9470 hc        1 2VK      0.047700
     60 H30       -12.0090   -0.5430   -2.3110 ho        1 2VK      0.405000
     61 H31       -11.2010    1.7520   -1.8570 ha        1 2VK      0.139000
     62 H32       -11.8200    3.7370   -0.4840 ha        1 2VK      0.131500
     63 H33       -11.8990    3.5630    2.0070 ha        1 2VK      0.132000
     64 H34       -11.3530    1.3930    3.1140 ha        1 2VK      0.131500
     65 H35       -10.7480   -0.5890    1.7530 ha        1 2VK      0.139000
@<TRIPOS>BOND
     1    1    2 ar  
     2    1    8 ar  
     3    1   32 1   
     4    2    3 ar  
     5    2   33 1   
     6    3    4 1   
     7    3    6 ar  
     8    4    5 3   
     9    6    7 ar  
    10    6   34 1   
    11    7    8 ar  
    12    7   35 1   
    13    8    9 1   
    14    9   10 1   
    15   10   11 1   
    16   10   36 1   
    17   10   37 1   
    18   11   12 1   
    19   11   38 1   
    20   11   39 1   
    21   12   13 1   
    22   12   40 1   
    23   12   41 1   
    24   13   14 1   
    25   13   16 1   
    26   14   15 1   
    27   14   42 1   
    28   14   43 1   
    29   15   18 1   
    30   15   44 1   
    31   15   45 1   
    32   16   17 1   
    33   16   46 1   
    34   16   47 1   
    35   17   18 1   
    36   17   48 1   
    37   17   49 1   
    38   18   19 1   
    39   18   50 1   
    40   19   20 1   
    41   19   25 1   
    42   19   26 1   
    43   20   21 1   
    44   20   24 1   
    45   20   51 1   
    46   21   22 1   
    47   21   52 1   
    48   21   53 1   
    49   22   23 1   
    50   22   54 1   
    51   22   55 1   
    52   23   24 1   
    53   23   56 1   
    54   23   57 1   
    55   24   58 1   
    56   24   59 1   
    57   25   60 1   
    58   26   27 ar  
    59   26   31 ar  
    60   27   28 ar  
    61   27   61 1   
    62   28   29 ar  
    63   28   62 1   
    64   29   30 ar  
    65   29   63 1   
    66   30   31 ar  
    67   30   64 1   
    68   31   65 1   
@<TRIPOS>SUBSTRUCTURE
     1 2VK         1 TEMP              0 ****  ****    0 ROOT
