@<TRIPOS>MOLECULE
2VL
   79    84     1     0     0
SMALL
bcc


@<TRIPOS>ATOM
      1 C1          0.2310    0.2660   -0.7150 c3        1 2VL     -0.056800
      2 C2          1.7000    0.0810   -0.6140 ca        1 2VL     -0.096300
      3 C3          2.3120   -0.1180    0.6300 ca        1 2VL     -0.008800
      4 C4          3.6940   -0.3080    0.7320 ca        1 2VL     -0.134000
      5 C5          4.4800   -0.2820   -0.4140 ca        1 2VL     -0.115000
      6 C6          3.9050   -0.0740   -1.6630 ca        1 2VL     -0.141000
      7 C7          2.5120    0.1030   -1.7870 ca        1 2VL      0.065600
      8 N8          1.9090    0.3350   -3.0360 ns        1 2VL     -0.473100
      9 C9          2.4300   -0.0090   -4.2830 c         1 2VL      0.717700
     10 O10         3.5580   -0.5150   -4.4300 o         1 2VL     -0.582100
     11 C11         1.5660    0.2780   -5.4410 cc        1 2VL     -0.201700
     12 C12         1.8170   -0.2460   -6.6990 cd        1 2VL     -0.068000
     13 C13         0.8430    0.1830   -7.6500 cd        1 2VL     -0.120300
     14 C14        -0.1050    1.0180   -7.0740 cc        1 2VL     -0.084400
     15 S15         0.1990    1.2620   -5.4480 ss        1 2VL      0.028200
     16 C16        -1.2360    1.5930   -7.8250 c3        1 2VL     -0.007100
     17 C17        -0.9940    1.5140   -9.3250 c3        1 2VL     -0.072400
     18 C18        -0.4860    0.1490   -9.7390 c3        1 2VL     -0.076400
     19 C19         0.8420   -0.1840   -9.0800 c3        1 2VL     -0.013100
     20 C20         1.5250   -0.1440    1.8810 cc        1 2VL      0.099400
     21 C21         1.4420    1.0020    2.6490 cd        1 2VL     -0.075400
     22 N22         0.7340    1.0150    3.8430 n         1 2VL     -0.328000
     23 C23         0.0960   -0.1470    4.2840 c         1 2VL      0.553200
     24 O24        -0.5820   -0.1530    5.3310 o         1 2VL     -0.639500
     25 C25         0.2670   -1.3750    3.3980 cd        1 2VL      0.566200
     26 N26         0.9340   -1.3460    2.2520 nc        1 2VL     -0.565300
     27 N27        -0.2840   -2.5440    3.9390 nu        1 2VL     -0.668600
     28 C28        -0.5910   -3.6850    3.1650 ca        1 2VL      0.133600
     29 C29         0.3550   -4.2970    2.3210 ca        1 2VL     -0.148500
     30 C30         0.0330   -5.4670    1.6340 ca        1 2VL     -0.100000
     31 C31        -1.2210   -6.0600    1.7750 ca        1 2VL     -0.105300
     32 C32        -2.1640   -5.4600    2.6230 ca        1 2VL     -0.100000
     33 C33        -1.8630   -4.2920    3.3080 ca        1 2VL     -0.148500
     34 C34        -1.6510   -7.3070    1.0360 c3        1 2VL      0.178800
     35 C36        -2.0650   -8.3530    2.1040 c         1 2VL      0.676500
     36 O37        -3.2450   -8.4400    2.4910 o         1 2VL     -0.646500
     37 N38        -1.0620   -9.1780    2.5790 n         1 2VL     -0.472800
     38 C39         0.2760   -8.9710    2.0880 c3        1 2VL      0.082000
     39 C40         0.3210   -8.7090    0.5670 c3        1 2VL      0.162800
     40 N41        -0.6860   -7.7920    0.0580 n3        1 2VL     -0.745600
     41 C42        -1.2840   -8.2300   -1.1820 c3        1 2VL      0.165100
     42 C43        -1.2750  -10.1230    3.6330 c3        1 2VL      0.083300
     43 C44         0.6600    2.2360    4.6030 c3        1 2VL      0.064300
     44 H1         -0.2210   -0.5320   -1.3570 hc        1 2VL      0.046367
     45 H2         -0.0140    1.2660   -1.1560 hc        1 2VL      0.046367
     46 H3         -0.2620    0.2120    0.2860 hc        1 2VL      0.046367
     47 H4          4.1510   -0.4830    1.7160 ha        1 2VL      0.138000
     48 H5          5.5680   -0.4290   -0.3390 ha        1 2VL      0.137000
     49 H6          4.5530   -0.0620   -2.5560 ha        1 2VL      0.171000
     50 H7          0.9510    0.6100   -3.0100 hn        1 2VL      0.315500
     51 H8          2.6580   -0.9050   -6.9350 ha        1 2VL      0.176000
     52 H9         -2.1740    1.0270   -7.5700 hc        1 2VL      0.054200
     53 H10        -1.4000    2.6640   -7.5300 hc        1 2VL      0.054200
     54 H11        -1.9520    1.7390   -9.8610 hc        1 2VL      0.046200
     55 H12        -0.2470    2.2960   -9.6230 hc        1 2VL      0.046200
     56 H13        -0.3620    0.1170  -10.8530 hc        1 2VL      0.044700
     57 H14        -1.2450   -0.6290   -9.4620 hc        1 2VL      0.044700
     58 H15         1.0560   -1.2800   -9.1950 hc        1 2VL      0.054700
     59 H16         1.6700    0.3740   -9.5970 hc        1 2VL      0.054700
     60 H17         1.9250    1.9480    2.3530 h4        1 2VL      0.168000
     61 H18        -0.9330   -2.3610    4.6840 hn        1 2VL      0.445800
     62 H19         1.3590   -3.8650    2.1900 ha        1 2VL      0.147000
     63 H20         0.7940   -5.9110    0.9730 ha        1 2VL      0.150500
     64 H21        -3.1540   -5.9300    2.7500 ha        1 2VL      0.150500
     65 H22        -2.6240   -3.8460    3.9670 ha        1 2VL      0.147000
     66 H23        -2.6110   -7.0390    0.4920 h1        1 2VL      0.092700
     67 H24         0.8990   -9.8820    2.3090 h1        1 2VL      0.053700
     68 H25         0.7390   -8.0890    2.6200 h1        1 2VL      0.053700
     69 H26         1.3250   -8.2550    0.3310 h1        1 2VL      0.047700
     70 H27         0.2620   -9.7040    0.0380 h1        1 2VL      0.047700
     71 H29        -1.9380   -9.1370   -1.0690 h1        1 2VL      0.037700
     72 H30        -0.4610   -8.4700   -1.9070 h1        1 2VL      0.037700
     73 H31        -1.8990   -7.3920   -1.6050 h1        1 2VL      0.037700
     74 H32        -2.3620  -10.1360    3.9160 h1        1 2VL      0.045367
     75 H33        -0.9710  -11.1500    3.2930 h1        1 2VL      0.045367
     76 H34        -0.6630   -9.8480    4.5340 h1        1 2VL      0.045367
     77 H35         0.0820    2.0590    5.5500 h1        1 2VL      0.062033
     78 H36         0.1450    3.0300    3.9990 h1        1 2VL      0.062033
     79 H37         1.6960    2.5850    4.8610 h1        1 2VL      0.062033
@<TRIPOS>BOND
     1    1    2 1   
     2    1   44 1   
     3    1   45 1   
     4    1   46 1   
     5    2    3 ar  
     6    2    7 ar  
     7    3    4 ar  
     8    3   20 1   
     9    4    5 ar  
    10    4   47 1   
    11    5    6 ar  
    12    5   48 1   
    13    6    7 ar  
    14    6   49 1   
    15    7    8 1   
    16    8    9 1   
    17    8   50 1   
    18    9   10 2   
    19    9   11 1   
    20   11   12 2   
    21   11   15 1   
    22   12   13 1   
    23   12   51 1   
    24   13   14 2   
    25   13   19 1   
    26   14   15 1   
    27   14   16 1   
    28   16   17 1   
    29   16   52 1   
    30   16   53 1   
    31   17   18 1   
    32   17   54 1   
    33   17   55 1   
    34   18   19 1   
    35   18   56 1   
    36   18   57 1   
    37   19   58 1   
    38   19   59 1   
    39   20   21 2   
    40   20   26 1   
    41   21   22 1   
    42   21   60 1   
    43   22   23 1   
    44   22   43 1   
    45   23   24 2   
    46   23   25 1   
    47   25   26 2   
    48   25   27 1   
    49   27   28 1   
    50   27   61 1   
    51   28   29 ar  
    52   28   33 ar  
    53   29   30 ar  
    54   29   62 1   
    55   30   31 ar  
    56   30   63 1   
    57   31   32 ar  
    58   31   34 1   
    59   32   33 ar  
    60   32   64 1   
    61   33   65 1   
    62   34   35 1   
    63   34   40 1   
    64   34   66 1   
    65   35   36 2   
    66   35   37 1   
    67   37   38 1   
    68   37   42 1   
    69   38   39 1   
    70   38   67 1   
    71   38   68 1   
    72   39   40 1   
    73   39   69 1   
    74   39   70 1   
    75   40   41 1   
    76   41   71 1   
    77   41   72 1   
    78   41   73 1   
    79   42   74 1   
    80   42   75 1   
    81   42   76 1   
    82   43   77 1   
    83   43   78 1   
    84   43   79 1   
@<TRIPOS>SUBSTRUCTURE
     1 2VL         1 TEMP              0 ****  ****    0 ROOT
