@<TRIPOS>MOLECULE
2VL
   79    84     1     0     0
SMALL
bcc


@<TRIPOS>ATOM
      1 C1          0.2220    0.2640   -0.7140 c3        1 2VL     -0.056800
      2 C2          1.6910    0.0890   -0.6090 ca        1 2VL     -0.096300
      3 C3          2.3010   -0.1040    0.6370 ca        1 2VL     -0.008800
      4 C4          3.6850   -0.2830    0.7430 ca        1 2VL     -0.135000
      5 C5          4.4740   -0.2530   -0.4010 ca        1 2VL     -0.115000
      6 C6          3.9010   -0.0520   -1.6520 ca        1 2VL     -0.141000
      7 C7          2.5060    0.1150   -1.7790 ca        1 2VL      0.065600
      8 N8          1.9050    0.3400   -3.0310 n         1 2VL     -0.473100
      9 C9          2.4310   -0.0040   -4.2750 c         1 2VL      0.717700
     10 O10         3.5630   -0.5030   -4.4180 o         1 2VL     -0.582100
     11 C11         1.5680    0.2740   -5.4360 cc        1 2VL     -0.201700
     12 C12         1.8250   -0.2530   -6.6920 cd        1 2VL     -0.068000
     13 C13         0.8510    0.1670   -7.6460 cd        1 2VL     -0.120300
     14 C14        -0.1030    0.9990   -7.0750 cc        1 2VL     -0.084400
     15 S15         0.1960    1.2500   -5.4500 ss        1 2VL      0.028200
     16 C16        -1.2360    1.5650   -7.8310 c3        1 2VL     -0.007100
     17 C17        -0.9910    1.4820   -9.3290 c3        1 2VL     -0.072400
     18 C18        -0.4740    0.1180   -9.7380 c3        1 2VL     -0.076400
     19 C19         0.8540   -0.2040   -9.0750 c3        1 2VL     -0.013100
     20 C20         1.5110   -0.1330    1.8860 cc        1 2VL      0.099400
     21 C21         1.4220    1.0120    2.6550 cd        1 2VL     -0.075400
     22 N22         0.7120    1.0220    3.8470 n         1 2VL     -0.328000
     23 C23         0.0770   -0.1430    4.2860 c         1 2VL      0.553200
     24 O24        -0.6040   -0.1510    5.3310 o         1 2VL     -0.639500
     25 C25         0.2540   -1.3690    3.4000 cd        1 2VL      0.566200
     26 N26         0.9230   -1.3370    2.2550 nc        1 2VL     -0.565300
     27 N27        -0.2940   -2.5410    3.9390 nh        1 2VL     -0.668600
     28 C28        -0.5960   -3.6820    3.1630 ca        1 2VL      0.133600
     29 C29         0.3530   -4.2900    2.3210 ca        1 2VL     -0.148500
     30 C30         0.0360   -5.4600    1.6320 ca        1 2VL     -0.100500
     31 C31        -1.2160   -6.0570    1.7690 ca        1 2VL     -0.104300
     32 C32        -2.1620   -5.4610    2.6160 ca        1 2VL     -0.100500
     33 C33        -1.8670   -4.2930    3.3020 ca        1 2VL     -0.148500
     34 C34        -1.6410   -7.3050    1.0280 c3        1 2VL      0.178800
     35 C36        -2.0540   -8.3540    2.0940 c         1 2VL      0.676500
     36 O37        -3.2350   -8.4440    2.4790 o         1 2VL     -0.646500
     37 N38        -1.0500   -9.1750    2.5710 n         1 2VL     -0.472800
     38 C39         0.2890   -8.9640    2.0830 c3        1 2VL      0.082000
     39 C40         0.3360   -8.7000    0.5630 c3        1 2VL      0.162800
     40 N41        -0.6720   -7.7860    0.0520 n3        1 2VL     -0.745600
     41 C42        -1.2660   -8.2250   -1.1900 c3        1 2VL      0.165100
     42 C43        -1.2630  -10.1230    3.6230 c3        1 2VL      0.083300
     43 C44         0.6310    2.2430    4.6080 c3        1 2VL      0.063300
     44 H1         -0.2230   -0.5390   -1.3550 hc        1 2VL      0.046367
     45 H2         -0.0290    1.2610   -1.1590 hc        1 2VL      0.046367
     46 H3         -0.2740    0.2100    0.2860 hc        1 2VL      0.046367
     47 H4          4.1410   -0.4530    1.7290 ha        1 2VL      0.138000
     48 H5          5.5620   -0.3930   -0.3220 ha        1 2VL      0.137000
     49 H6          4.5500   -0.0380   -2.5430 ha        1 2VL      0.171000
     50 H7          0.9450    0.6070   -3.0080 hn        1 2VL      0.315500
     51 H8          2.6700   -0.9080   -6.9230 ha        1 2VL      0.176000
     52 H9         -1.4070    2.6360   -7.5400 hc        1 2VL      0.054200
     53 H10        -2.1710    0.9950   -7.5750 hc        1 2VL      0.054200
     54 H11        -0.2470    2.2670   -9.6280 hc        1 2VL      0.046200
     55 H12        -1.9490    1.7000   -9.8680 hc        1 2VL      0.046200
     56 H13        -0.3480    0.0840  -10.8510 hc        1 2VL      0.044700
     57 H14        -1.2290   -0.6630   -9.4590 hc        1 2VL      0.044700
     58 H15         1.0750   -1.3000   -9.1860 hc        1 2VL      0.054700
     59 H16         1.6810    0.3560   -9.5920 hc        1 2VL      0.054700
     60 H17         1.9030    1.9600    2.3610 h4        1 2VL      0.168000
     61 H18        -0.9450   -2.3600    4.6830 hn        1 2VL      0.445800
     62 H19         1.3570   -3.8560    2.1920 ha        1 2VL      0.147000
     63 H20         0.8010   -5.9010    0.9720 ha        1 2VL      0.150500
     64 H21        -3.1510   -5.9350    2.7400 ha        1 2VL      0.150500
     65 H22        -2.6300   -3.8500    3.9610 ha        1 2VL      0.147000
     66 H23        -2.6010   -7.0390    0.4820 h1        1 2VL      0.092700
     67 H24         0.7480   -8.0810    2.6170 h1        1 2VL      0.053700
     68 H25         0.9140   -9.8730    2.3040 h1        1 2VL      0.053700
     69 H26         0.2820   -9.6950    0.0320 h1        1 2VL      0.047700
     70 H27         1.3400   -8.2420    0.3290 h1        1 2VL      0.047700
     71 H29        -1.8830   -7.3890   -1.6130 h1        1 2VL      0.037700
     72 H30        -1.9180   -9.1340   -1.0780 h1        1 2VL      0.037700
     73 H31        -0.4420   -8.4620   -1.9130 h1        1 2VL      0.037700
     74 H32        -0.6540   -9.8470    4.5260 h1        1 2VL      0.045367
     75 H33        -2.3500  -10.1390    3.9030 h1        1 2VL      0.045367
     76 H34        -0.9540  -11.1480    3.2820 h1        1 2VL      0.045367
     77 H35         1.6650    2.5960    4.8680 h1        1 2VL      0.062033
     78 H36         0.0520    2.0620    5.5530 h1        1 2VL      0.062033
     79 H37         0.1140    3.0340    4.0030 h1        1 2VL      0.062033
@<TRIPOS>BOND
     1    1    2 1   
     2    1   44 1   
     3    1   45 1   
     4    1   46 1   
     5    2    3 ar  
     6    2    7 ar  
     7    3    4 ar  
     8    3   20 1   
     9    4    5 ar  
    10    4   47 1   
    11    5    6 ar  
    12    5   48 1   
    13    6    7 ar  
    14    6   49 1   
    15    7    8 1   
    16    8    9 1   
    17    8   50 1   
    18    9   10 2   
    19    9   11 1   
    20   11   12 2   
    21   11   15 1   
    22   12   13 1   
    23   12   51 1   
    24   13   14 2   
    25   13   19 1   
    26   14   15 1   
    27   14   16 1   
    28   16   17 1   
    29   16   52 1   
    30   16   53 1   
    31   17   18 1   
    32   17   54 1   
    33   17   55 1   
    34   18   19 1   
    35   18   56 1   
    36   18   57 1   
    37   19   58 1   
    38   19   59 1   
    39   20   21 2   
    40   20   26 1   
    41   21   22 1   
    42   21   60 1   
    43   22   23 1   
    44   22   43 1   
    45   23   24 2   
    46   23   25 1   
    47   25   26 2   
    48   25   27 1   
    49   27   28 1   
    50   27   61 1   
    51   28   29 ar  
    52   28   33 ar  
    53   29   30 ar  
    54   29   62 1   
    55   30   31 ar  
    56   30   63 1   
    57   31   32 ar  
    58   31   34 1   
    59   32   33 ar  
    60   32   64 1   
    61   33   65 1   
    62   34   35 1   
    63   34   40 1   
    64   34   66 1   
    65   35   36 2   
    66   35   37 1   
    67   37   38 1   
    68   37   42 1   
    69   38   39 1   
    70   38   67 1   
    71   38   68 1   
    72   39   40 1   
    73   39   69 1   
    74   39   70 1   
    75   40   41 1   
    76   41   71 1   
    77   41   72 1   
    78   41   73 1   
    79   42   74 1   
    80   42   75 1   
    81   42   76 1   
    82   43   77 1   
    83   43   78 1   
    84   43   79 1   
@<TRIPOS>SUBSTRUCTURE
     1 2VL         1 TEMP              0 ****  ****    0 ROOT
