@<TRIPOS>MOLECULE
2VM
   54    57     1     0     0
SMALL
bcc


@<TRIPOS>ATOM
      1 CAM        -1.0210    0.5070    1.4700 c3        1 2VM     -0.010200
      2 CAL         0.2700    0.6130    2.2750 c3        1 2VM     -0.064400
      3 CAK         0.1820    1.5230    3.4900 c3        1 2VM     -0.175700
      4 CBD         1.5980    2.0340    3.8460 c         1 2VM      0.922600
      5 OBF         2.1210    2.9430    3.1180 o         1 2VM     -0.849300
      6 OBE         2.1690    1.5630    4.8600 o         1 2VM     -0.849300
      7 CAJ        -0.7490    2.7290    3.3580 c3        1 2VM     -0.005200
      8 CAH        -1.2230    2.9210    1.9730 cc        1 2VM     -0.052300
      9 CAI        -1.4440    1.8650    1.0970 cd        1 2VM     -0.115400
     10 CAE        -1.9680    2.4190   -0.1350 ca        1 2VM     -0.058800
     11 CAF        -2.4060    1.8610   -1.3290 ca        1 2VM     -0.068000
     12 CAA        -2.8670    2.7110   -2.3360 ca        1 2VM     -0.040900
     13 Br         -3.4690    1.9820   -3.9580 br        1 2VM     -0.117100
     14 CAB        -2.8890    4.1030   -2.1610 ca        1 2VM     -0.101000
     15 CAC        -2.4610    4.6890   -0.9740 ca        1 2VM     -0.125000
     16 CAD        -2.0000    3.8550    0.0470 ca        1 2VM     -0.041200
     17 NAG        -1.5960    4.1630    1.3750 na        1 2VM     -0.061400
     18 CAO        -0.8890    5.3640    1.7060 c3        1 2VM     -0.027700
     19 CAP         0.5850    5.3730    1.2750 c         1 2VM      0.527100
     20 OAQ         0.9590    5.2230    0.1180 o         1 2VM     -0.437100
     21 N           1.6140    5.5710    2.3220 ny        1 2VM     -0.650800
     22 CA          1.4650    6.8780    3.0380 c3        1 2VM     -0.041500
     23 C           2.0090    8.0700    2.1320 c         1 2VM      0.920600
     24 OXT         2.9780    7.7960    1.3840 o         1 2VM     -0.780300
     25 O           1.4000    9.1530    2.2720 o         1 2VM     -0.780300
     26 CB          2.2420    6.9060    4.3520 c3        1 2VM     -0.041100
     27 CG          1.5750    6.1480    5.4430 ca        1 2VM     -0.117300
     28 CD1         1.8340    4.7860    5.6300 ca        1 2VM     -0.133000
     29 CE1         1.2180    4.0890    6.6710 ca        1 2VM     -0.132500
     30 CZ          0.3460    4.7480    7.5350 ca        1 2VM     -0.145000
     31 CE2         0.0840    6.1070    7.3540 ca        1 2VM     -0.132500
     32 CD2         0.6940    6.8040    6.3140 ca        1 2VM     -0.133000
     33 H1         -1.8180    0.0070    2.0830 hc        1 2VM      0.041200
     34 H2         -0.8520   -0.1190    0.5560 hc        1 2VM      0.041200
     35 H3          1.0810    0.9970    1.5990 hc        1 2VM      0.053700
     36 H4          0.5720   -0.4110    2.6170 hc        1 2VM      0.053700
     37 H5         -0.1830    0.9120    4.3620 hc        1 2VM      0.051700
     38 H7         -0.2220    3.6450    3.7430 hc        1 2VM      0.049700
     39 H8         -1.6530    2.5750    4.0110 hc        1 2VM      0.049700
     40 H9         -2.3840    0.7700   -1.4660 ha        1 2VM      0.147000
     41 H10        -3.2470    4.7530   -2.9740 ha        1 2VM      0.140000
     42 H11        -2.4790    5.7820   -0.8550 ha        1 2VM      0.140000
     43 H12        -0.9810    5.5140    2.8200 h1        1 2VM      0.101700
     44 H13        -1.3720    6.2370    1.1770 h1        1 2VM      0.101700
     45 H14         2.5470    5.5880    1.8670 hn        1 2VM      0.494300
     46 H15         0.3740    7.0560    3.2420 hx        1 2VM      0.074700
     47 H17         3.2860    6.5230    4.1940 hc        1 2VM      0.080700
     48 H18         2.3260    7.9930    4.6360 hc        1 2VM      0.080700
     49 H19         2.5160    4.2310    4.9550 ha        1 2VM      0.158500
     50 H20         1.4280    3.0100    6.7770 ha        1 2VM      0.143500
     51 H21        -0.1370    4.2000    8.3570 ha        1 2VM      0.120000
     52 H22        -0.6030    6.6300    8.0340 ha        1 2VM      0.143500
     53 H23         0.4880    7.8760    6.1730 ha        1 2VM      0.158500
     54 H24         1.5900    4.7610    2.9870 hn        1 2VM      0.494300
@<TRIPOS>BOND
     1    1    2 1   
     2    1    9 1   
     3    1   33 1   
     4    1   34 1   
     5    2    3 1   
     6    2   35 1   
     7    2   36 1   
     8    3    4 1   
     9    3    7 1   
    10    3   37 1   
    11    4    5 1   
    12    4    6 1   
    13    7    8 1   
    14    7   38 1   
    15    7   39 1   
    16    8    9 2   
    17    8   17 1   
    18    9   10 1   
    19   10   11 ar  
    20   10   16 ar  
    21   11   12 ar  
    22   11   40 1   
    23   12   13 1   
    24   12   14 ar  
    25   14   15 ar  
    26   14   41 1   
    27   15   16 ar  
    28   15   42 1   
    29   16   17 1   
    30   17   18 1   
    31   18   19 1   
    32   18   43 1   
    33   18   44 1   
    34   19   20 2   
    35   19   21 1   
    36   21   22 1   
    37   21   45 1   
    38   21   54 1   
    39   22   23 1   
    40   22   26 1   
    41   22   46 1   
    42   23   24 1   
    43   23   25 1   
    44   26   27 1   
    45   26   47 1   
    46   26   48 1   
    47   27   28 ar  
    48   27   32 ar  
    49   28   29 ar  
    50   28   49 1   
    51   29   30 ar  
    52   29   50 1   
    53   30   31 ar  
    54   30   51 1   
    55   31   32 ar  
    56   31   52 1   
    57   32   53 1   
@<TRIPOS>SUBSTRUCTURE
     1 2VM         1 TEMP              0 ****  ****    0 ROOT
