@<TRIPOS>MOLECULE
2VM
   54    57     1     0     0
SMALL
bcc


@<TRIPOS>ATOM
      1 CAM        -0.7910    0.4820    1.4640 c3        1 2VM     -0.013200
      2 CAL         0.5690    0.4100    2.1530 c3        1 2VM     -0.061400
      3 CAK         0.7180    1.4170    3.2760 c3        1 2VM     -0.183700
      4 CBD         2.1180    1.3340    3.9490 c         1 2VM      0.921600
      5 OBF         2.7730    2.4180    4.0480 o         1 2VM     -0.841300
      6 OBE         2.5080    0.2190    4.3760 o         1 2VM     -0.841300
      7 CAJ         0.5400    2.8430    2.7800 c3        1 2VM     -0.029200
      8 CAH        -0.5470    2.9490    1.7940 cc        1 2VM     -0.048300
      9 CAI        -1.1480    1.8750    1.1450 cd        1 2VM     -0.109400
     10 CAE        -2.0800    2.4260    0.1820 ca        1 2VM     -0.068800
     11 CAF        -2.9600    1.8630   -0.7360 ca        1 2VM     -0.059000
     12 CAA        -3.7260    2.7070   -1.5380 ca        1 2VM     -0.050900
     13 BR         -4.9200    1.9680   -2.7850 br        1 2VM     -0.116100
     14 CAB        -3.6240    4.1040   -1.4360 ca        1 2VM     -0.098000
     15 CAC        -2.7600    4.7020   -0.5270 ca        1 2VM     -0.144000
     16 CAD        -1.9820    3.8710    0.2880 ca        1 2VM     -0.024200
     17 NAG        -1.0730    4.1750    1.3150 na        1 2VM     -0.090400
     18 CAO        -0.5330    5.4430    1.6610 c3        1 2VM     -0.003700
     19 CAP         0.9370    5.6110    1.2390 c         1 2VM      0.516100
     20 OAQ         1.3290    5.5940    0.0800 o         1 2VM     -0.427100
     21 N           1.9490    5.8120    2.3110 n4        1 2VM     -0.659800
     22 CA          1.7380    7.0860    3.0790 c3        1 2VM     -0.046500
     23 C           2.6230    8.2590    2.4490 c         1 2VM      0.929600
     24 OXT         3.5810    7.8920    1.7260 o         1 2VM     -0.770800
     25 O           2.2480    9.4090    2.7530 o         1 2VM     -0.770800
     26 CB          2.1200    6.9360    4.5470 c3        1 2VM     -0.048100
     27 CG          1.1210    6.1560    5.3250 ca        1 2VM     -0.128300
     28 CD1        -0.0110    6.8030    5.8410 ca        1 2VM     -0.134500
     29 CE1        -0.9440    6.0950    6.5930 ca        1 2VM     -0.131500
     30 CZ         -0.7570    4.7340    6.8370 ca        1 2VM     -0.137000
     31 CE2         0.3660    4.0850    6.3250 ca        1 2VM     -0.131500
     32 CD2         1.3060    4.7910    5.5710 ca        1 2VM     -0.134500
     33 H1         -0.7740   -0.1350    0.5270 hc        1 2VM      0.040700
     34 H2         -1.5780    0.0450    2.1390 hc        1 2VM      0.040700
     35 H3          0.7230   -0.6170    2.5760 hc        1 2VM      0.054700
     36 H4          1.3750    0.5840    1.3930 hc        1 2VM      0.054700
     37 H5         -0.0460    1.1970    4.0670 hc        1 2VM      0.046700
     38 H7          1.5060    3.1420    2.2780 hc        1 2VM      0.058700
     39 H8          0.3760    3.5180    3.6630 hc        1 2VM      0.058700
     40 H9         -3.0370    0.7680   -0.8150 ha        1 2VM      0.149000
     41 H10        -4.2380    4.7460   -2.0870 ha        1 2VM      0.139000
     42 H11        -2.6910    5.7960   -0.4620 ha        1 2VM      0.134000
     43 H12        -1.1070    6.2630    1.1380 h1        1 2VM      0.101200
     44 H13        -0.6280    5.5800    2.7800 h1        1 2VM      0.101200
     45 H14         2.8940    5.9070    1.8690 hn        1 2VM      0.485300
     46 H15         0.6570    7.3840    2.9960 hx        1 2VM      0.076700
     47 H17         3.1400    6.4740    4.6440 hc        1 2VM      0.089200
     48 H18         2.1920    7.9850    4.9530 hc        1 2VM      0.089200
     49 H19        -0.1520    7.8790    5.6550 ha        1 2VM      0.164500
     50 H20        -1.8270    6.6110    6.9970 ha        1 2VM      0.139000
     51 H21        -1.4930    4.1750    7.4320 ha        1 2VM      0.125000
     52 H22         0.5230    3.0100    6.5040 ha        1 2VM      0.139000
     53 H23         2.1870    4.2430    5.1760 ha        1 2VM      0.164500
     54 H24         1.9520    5.0010    2.9510 hn        1 2VM      0.485300
@<TRIPOS>BOND
     1    1    2 1   
     2    1    9 1   
     3    1   33 1   
     4    1   34 1   
     5    2    3 1   
     6    2   35 1   
     7    2   36 1   
     8    3    4 1   
     9    3    7 1   
    10    3   37 1   
    11    4    5 1   
    12    4    6 1   
    13    7    8 1   
    14    7   38 1   
    15    7   39 1   
    16    8    9 2   
    17    8   17 1   
    18    9   10 1   
    19   10   11 ar  
    20   10   16 ar  
    21   11   12 ar  
    22   11   40 1   
    23   12   13 1   
    24   12   14 ar  
    25   14   15 ar  
    26   14   41 1   
    27   15   16 ar  
    28   15   42 1   
    29   16   17 1   
    30   17   18 1   
    31   18   19 1   
    32   18   43 1   
    33   18   44 1   
    34   19   20 2   
    35   19   21 1   
    36   21   22 1   
    37   21   45 1   
    38   21   54 1   
    39   22   23 1   
    40   22   26 1   
    41   22   46 1   
    42   23   24 1   
    43   23   25 1   
    44   26   27 1   
    45   26   47 1   
    46   26   48 1   
    47   27   28 ar  
    48   27   32 ar  
    49   28   29 ar  
    50   28   49 1   
    51   29   30 ar  
    52   29   50 1   
    53   30   31 ar  
    54   30   51 1   
    55   31   32 ar  
    56   31   52 1   
    57   32   53 1   
@<TRIPOS>SUBSTRUCTURE
     1 2VM         1 TEMP              0 ****  ****    0 ROOT
