@<TRIPOS>MOLECULE
2VM
   54    57     1     0     0
SMALL
bcc


@<TRIPOS>ATOM
      1 CAM        -0.7470    0.4890    1.3260 c3        1 2VM     -0.010200
      2 CAL         0.5180    0.6520    2.1630 c3        1 2VM     -0.064400
      3 CAK         0.3450    1.5110    3.4050 c3        1 2VM     -0.175700
      4 CBD         1.7150    2.1040    3.8090 c         1 2VM      0.922600
      5 OBF         2.1900    3.0700    3.1230 o         1 2VM     -0.849300
      6 OBE         2.2970    1.6360    4.8190 o         1 2VM     -0.849300
      7 CAJ        -0.6630    2.6560    3.2940 c3        1 2VM     -0.005200
      8 CAH        -1.1220    2.8640    1.9050 cc        1 2VM     -0.052300
      9 CAI        -1.2530    1.8280    0.9890 cd        1 2VM     -0.115400
     10 CAE        -1.7880    2.3880   -0.2350 ca        1 2VM     -0.058800
     11 CAF        -2.1640    1.8440   -1.4560 ca        1 2VM     -0.068000
     12 CAA        -2.6620    2.6960   -2.4430 ca        1 2VM     -0.040900
     13 BR         -3.1800    1.9860   -4.1020 br        1 2VM     -0.117100
     14 CAB        -2.7810    4.0760   -2.2220 ca        1 2VM     -0.101000
     15 CAC        -2.4170    4.6490   -1.0070 ca        1 2VM     -0.125000
     16 CAD        -1.9210    3.8110   -0.0040 ca        1 2VM     -0.041200
     17 NAG        -1.5650    4.0990    1.3410 na        1 2VM     -0.061400
     18 CAO        -0.9480    5.3320    1.7280 c3        1 2VM     -0.027700
     19 CAP         0.5300    5.4550    1.3310 c         1 2VM      0.527100
     20 OAQ         0.9360    5.3720    0.1780 o         1 2VM     -0.437100
     21 N           1.5230    5.6850    2.4070 n4        1 2VM     -0.650800
     22 CA          1.2710    6.9530    3.1630 c3        1 2VM     -0.041500
     23 C           1.7500    8.2100    2.3100 c         1 2VM      0.920600
     24 OXT         1.0660    9.2430    2.4730 o         1 2VM     -0.780300
     25 O           2.7500    8.0280    1.5750 o         1 2VM     -0.780300
     26 CB          2.0180    6.9870    4.4940 c3        1 2VM     -0.041100
     27 CG          1.3830    6.1470    5.5440 ca        1 2VM     -0.117300
     28 CD1         0.4430    6.7120    6.4170 ca        1 2VM     -0.133000
     29 CE1        -0.1370    5.9390    7.4200 ca        1 2VM     -0.132500
     30 CZ          0.2120    4.5950    7.5600 ca        1 2VM     -0.145000
     31 CE2         1.1430    4.0270    6.6930 ca        1 2VM     -0.132500
     32 CD2         1.7310    4.8000    5.6900 ca        1 2VM     -0.133000
     33 H1         -1.5200   -0.0850    1.9040 hc        1 2VM      0.041200
     34 H2         -0.5180   -0.0930    0.3950 hc        1 2VM      0.041200
     35 H3          0.8820   -0.3600    2.4760 hc        1 2VM      0.053700
     36 H4          1.3150    1.1130    1.5180 hc        1 2VM      0.053700
     37 H5          0.0050    0.8470    4.2480 hc        1 2VM      0.051700
     38 H7         -1.5670    2.4190    3.9200 hc        1 2VM      0.049700
     39 H8         -0.2070    3.5910    3.7200 hc        1 2VM      0.049700
     40 H9         -2.0660    0.7620   -1.6290 ha        1 2VM      0.147000
     41 H10        -3.1660    4.7290   -3.0210 ha        1 2VM      0.140000
     42 H11        -2.5110    5.7320   -0.8520 ha        1 2VM      0.140000
     43 H12        -1.0730    5.4360    2.8450 h1        1 2VM      0.101700
     44 H13        -1.4790    6.1890    1.2180 h1        1 2VM      0.101700
     45 H14         2.4600    5.7800    1.9740 hn        1 2VM      0.494300
     46 H15         0.1670    7.0490    3.3490 hx        1 2VM      0.074700
     47 H17         2.0230    8.0660    4.8160 hc        1 2VM      0.080700
     48 H18         3.0890    6.6810    4.3460 hc        1 2VM      0.080700
     49 H19         0.1680    7.7710    6.3080 ha        1 2VM      0.158500
     50 H20        -0.8720    6.3910    8.1020 ha        1 2VM      0.143500
     51 H21        -0.2480    3.9870    8.3520 ha        1 2VM      0.120000
     52 H22         1.4240    2.9610    6.7670 ha        1 2VM      0.143500
     53 H23         2.4620    4.3160    5.0120 ha        1 2VM      0.158500
     54 H24         1.5400    4.8520    3.0430 hn        1 2VM      0.494300
@<TRIPOS>BOND
     1    1    2 1   
     2    1    9 1   
     3    1   33 1   
     4    1   34 1   
     5    2    3 1   
     6    2   35 1   
     7    2   36 1   
     8    3    4 1   
     9    3    7 1   
    10    3   37 1   
    11    4    5 1   
    12    4    6 1   
    13    7    8 1   
    14    7   38 1   
    15    7   39 1   
    16    8    9 2   
    17    8   17 1   
    18    9   10 1   
    19   10   11 ar  
    20   10   16 ar  
    21   11   12 ar  
    22   11   40 1   
    23   12   13 1   
    24   12   14 ar  
    25   14   15 ar  
    26   14   41 1   
    27   15   16 ar  
    28   15   42 1   
    29   16   17 1   
    30   17   18 1   
    31   18   19 1   
    32   18   43 1   
    33   18   44 1   
    34   19   20 2   
    35   19   21 1   
    36   21   22 1   
    37   21   45 1   
    38   21   54 1   
    39   22   23 1   
    40   22   26 1   
    41   22   46 1   
    42   23   24 1   
    43   23   25 1   
    44   26   27 1   
    45   26   47 1   
    46   26   48 1   
    47   27   28 ar  
    48   27   32 ar  
    49   28   29 ar  
    50   28   49 1   
    51   29   30 ar  
    52   29   50 1   
    53   30   31 ar  
    54   30   51 1   
    55   31   32 ar  
    56   31   52 1   
    57   32   53 1   
@<TRIPOS>SUBSTRUCTURE
     1 2VM         1 TEMP              0 ****  ****    0 ROOT
