@<TRIPOS>MOLECULE
2VO
   81    84     1     0     0
SMALL
bcc


@<TRIPOS>ATOM
      1 C01        -0.1350    1.8580    0.1530 c2        1 2VO     -0.236000
      2 C02         0.9550    2.0890    0.8910 ce        1 2VO     -0.081000
      3 C03         1.8610    1.0860    1.3690 cc        1 2VO     -0.231200
      4 C04         2.9860    1.2500    2.1270 cd        1 2VO     -0.111800
      5 C05         3.6010    2.4630    2.6480 c3        1 2VO     -0.085900
      6 C06         3.5670   -0.1440    2.3490 cd        1 2VO      0.522600
      7 C07         4.8300   -0.3480    3.1180 c3        1 2VO     -0.055400
      8 C08         4.5980   -0.4810    4.5750 cc        1 2VO     -0.149600
      9 N09         4.7880    0.5860    5.4490 na        1 2VO     -0.155100
     10 C10         4.6390    0.1350    6.7570 cc        1 2VO     -0.085600
     11 C11         4.7750    1.0600    7.9110 c3        1 2VO      0.036200
     12 C12         6.1440    1.0930    8.4920 cc        1 2VO     -0.083600
     13 N13         6.3610    0.6900    9.8050 na        1 2VO     -0.127100
     14 C14         7.7080    0.8280   10.1160 cc        1 2VO     -0.101100
     15 C15         8.3200    0.4940   11.3690 ce        1 2VO     -0.122200
     16 C16         7.8400   -0.1630   12.4480 c2        1 2VO     -0.016600
     17 N17         6.5630   -0.6910   12.7070 ns        1 2VO     -0.446100
     18 C18         6.4760   -1.1840   14.0030 c         1 2VO      0.692500
     19 O19         5.4850   -1.7200   14.5250 o         1 2VO     -0.639500
     20 C20         7.8050   -0.9520   14.7470 c3        1 2VO     -0.159700
     21 C21         7.6060   -0.0590   15.9430 c3        1 2VO     -0.076100
     22 C22         8.7320   -0.3370   13.6820 c3        1 2VO     -0.033500
     23 C23         9.9300   -1.2170   13.3800 c3        1 2VO     -0.077400
     24 C24        10.9390   -1.2010   14.5000 c3        1 2VO     -0.090100
     25 C25         8.3650    1.3620    8.9730 cd        1 2VO     -0.161300
     26 C26         9.7880    1.6780    8.8490 c3        1 2VO     -0.002800
     27 C27         7.3780    1.5230    7.9440 cd        1 2VO     -0.142300
     28 C28         7.6550    1.9770    6.5700 c3        1 2VO      0.004900
     29 C29         6.9570    3.2640    6.1780 c3        1 2VO     -0.185400
     30 C30         6.9160    3.4350    4.6580 c         1 2VO      0.908600
     31 O31         6.1380    2.6820    3.9820 o         1 2VO     -0.868800
     32 O32         7.6220    4.3270    4.1110 o         1 2VO     -0.868800
     33 C33         4.3020   -1.2380    6.7240 cd        1 2VO     -0.136300
     34 C34         4.1310   -2.1860    7.8390 c3        1 2VO      0.003900
     35 C39         4.2690   -1.6230    5.3350 cd        1 2VO     -0.153300
     36 C40         3.9580   -2.9560    4.8160 c3        1 2VO     -0.009800
     37 N41         2.8550   -1.0780    1.7600 nc        1 2VO     -0.644100
     38 C42         1.7280   -0.4090    1.1070 c         1 2VO      0.682700
     39 O43         0.8530   -0.9820    0.4580 o         1 2VO     -0.521100
     40 C35         3.2160   -1.7460    8.9660 c3        1 2VO     -0.168400
     41 C36         3.9960   -1.3130   10.2020 c         1 2VO      0.893600
     42 O37         3.7110   -0.2070   10.7640 o         1 2VO     -0.863300
     43 O38         4.9450   -2.0300   10.6480 o         1 2VO     -0.863300
     44 H1         -0.4380    0.8490   -0.1570 ha        1 2VO      0.113500
     45 H2         -0.7880    2.6740   -0.1780 ha        1 2VO      0.113500
     46 H3          1.2200    3.1230    1.1840 ha        1 2VO      0.120000
     47 H4          4.6790    2.5480    2.3300 hc        1 2VO      0.086033
     48 H5          3.0520    3.3770    2.3140 hc        1 2VO      0.086033
     49 H6          3.6260    2.4460    3.7700 hc        1 2VO      0.086033
     50 H7          5.3480   -1.2800    2.7570 hc        1 2VO      0.092200
     51 H8          5.5060    0.5370    2.9150 hc        1 2VO      0.092200
     52 H9          5.1920    1.4680    5.1790 hn        1 2VO      0.351700
     53 H10         4.5040    2.1090    7.6030 hc        1 2VO      0.079700
     54 H11         4.0250    0.7410    8.6970 hc        1 2VO      0.079700
     55 H12         5.6440    0.3380   10.4050 hn        1 2VO      0.349700
     56 H13         9.3720    0.8330   11.4330 ha        1 2VO      0.119000
     57 H14         5.8840   -0.9350   11.9930 hn        1 2VO      0.413500
     58 H15         8.1880   -1.9520   15.0810 hc        1 2VO      0.066700
     59 H16         6.8260   -0.4940   16.6140 hc        1 2VO      0.034367
     60 H17         8.5620    0.0420   16.5120 hc        1 2VO      0.034367
     61 H18         7.2710    0.9590   15.6270 hc        1 2VO      0.034367
     62 H19         9.0910    0.6730   14.0150 hc        1 2VO      0.054700
     63 H20        10.4170   -0.8590   12.4330 hc        1 2VO      0.052200
     64 H21         9.5850   -2.2680   13.1930 hc        1 2VO      0.052200
     65 H22        11.3620   -0.1760   14.6360 hc        1 2VO      0.023700
     66 H23        11.7790   -1.9020   14.2750 hc        1 2VO      0.023700
     67 H24        10.4650   -1.5120   15.4620 hc        1 2VO      0.023700
     68 H25        10.3320    0.8470    8.3300 hc        1 2VO      0.020700
     69 H26         9.9330    2.6110    8.2470 hc        1 2VO      0.020700
     70 H27        10.2640    1.8330    9.8490 hc        1 2VO      0.020700
     71 H28         8.7640    2.1210    6.4460 hc        1 2VO      0.040700
     72 H29         7.3610    1.1650    5.8490 hc        1 2VO      0.040700
     73 H30         7.4850    4.1370    6.6360 hc        1 2VO      0.029200
     74 H31         5.9040    3.2620    6.5590 hc        1 2VO      0.029200
     75 H33         5.1470   -2.4170    8.2730 hc        1 2VO      0.042200
     76 H34         3.7360   -3.1510    7.4150 hc        1 2VO      0.042200
     77 H35         2.9270   -3.2660    5.1230 hc        1 2VO      0.026033
     78 H36         4.6790   -3.7110    5.2220 hc        1 2VO      0.026033
     79 H37         4.0130   -2.9760    3.7000 hc        1 2VO      0.026033
     80 H38         2.5630   -2.6040    9.2670 hc        1 2VO      0.031200
     81 H39         2.5490   -0.9100    8.6360 hc        1 2VO      0.031200
@<TRIPOS>BOND
     1    1    2 2   
     2    1   44 1   
     3    1   45 1   
     4    2    3 1   
     5    2   46 1   
     6    3    4 2   
     7    3   38 1   
     8    4    5 1   
     9    4    6 1   
    10    5   47 1   
    11    5   48 1   
    12    5   49 1   
    13    6    7 1   
    14    6   37 2   
    15    7    8 1   
    16    7   50 1   
    17    7   51 1   
    18    8    9 1   
    19    8   35 2   
    20    9   10 1   
    21    9   52 1   
    22   10   11 1   
    23   10   33 2   
    24   11   12 1   
    25   11   53 1   
    26   11   54 1   
    27   12   13 1   
    28   12   27 2   
    29   13   14 1   
    30   13   55 1   
    31   14   15 1   
    32   14   25 2   
    33   15   16 2   
    34   15   56 1   
    35   16   17 1   
    36   16   22 1   
    37   17   18 1   
    38   17   57 1   
    39   18   19 2   
    40   18   20 1   
    41   20   21 1   
    42   20   22 1   
    43   20   58 1   
    44   21   59 1   
    45   21   60 1   
    46   21   61 1   
    47   22   23 1   
    48   22   62 1   
    49   23   24 1   
    50   23   63 1   
    51   23   64 1   
    52   24   65 1   
    53   24   66 1   
    54   24   67 1   
    55   25   26 1   
    56   25   27 1   
    57   26   68 1   
    58   26   69 1   
    59   26   70 1   
    60   27   28 1   
    61   28   29 1   
    62   28   71 1   
    63   28   72 1   
    64   29   30 1   
    65   29   73 1   
    66   29   74 1   
    67   30   31 1   
    68   30   32 1   
    69   33   34 1   
    70   33   35 1   
    71   34   40 1   
    72   34   75 1   
    73   34   76 1   
    74   35   36 1   
    75   36   77 1   
    76   36   78 1   
    77   36   79 1   
    78   37   38 1   
    79   38   39 2   
    80   40   41 1   
    81   40   80 1   
    82   40   81 1   
    83   41   42 1   
    84   41   43 1   
@<TRIPOS>SUBSTRUCTURE
     1 2VO         1 TEMP              0 ****  ****    0 ROOT
