@<TRIPOS>MOLECULE
2VO
   81    84     1     0     0
SMALL
bcc


@<TRIPOS>ATOM
      1 C01        -0.1460    1.7300    0.3120 c2        1 2VO     -0.231000
      2 C02         0.9990    1.9280    0.9720 ce        1 2VO     -0.084000
      3 C03         1.8800    0.8930    1.4300 cc        1 2VO     -0.223200
      4 C04         3.0480    1.0240    2.1280 cd        1 2VO     -0.118800
      5 C05         3.7250    2.2310    2.5850 c3        1 2VO     -0.080900
      6 C06         3.5740   -0.3900    2.3570 cd        1 2VO      0.513600
      7 C07         4.8610   -0.6480    3.0680 c3        1 2VO     -0.040400
      8 C08         4.7100   -0.6460    4.5400 cc        1 2VO     -0.165600
      9 N09         4.8300    0.5070    5.3100 na        1 2VO     -0.150100
     10 C10         4.7430    0.1590    6.6530 cc        1 2VO     -0.095600
     11 C11         4.8260    1.1710    7.7350 c3        1 2VO      0.052200
     12 C12         6.1610    1.1950    8.3840 cc        1 2VO     -0.100600
     13 N13         6.3810    0.6240    9.6330 na        1 2VO     -0.140100
     14 C14         7.7150    0.8100    9.9840 cc        1 2VO     -0.102100
     15 C15         8.3490    0.3370   11.1820 ce        1 2VO     -0.113200
     16 C16         7.8160   -0.0050   12.3740 c2        1 2VO     -0.018600
     17 N17         6.4770    0.0730   12.8110 n         1 2VO     -0.439100
     18 C18         6.3840   -0.2090   14.1750 c         1 2VO      0.693500
     19 O19         5.3460   -0.1750   14.8520 o         1 2VO     -0.628500
     20 C20         7.7800   -0.5030   14.7520 c3        1 2VO     -0.157700
     21 C21         8.1400    0.4790   15.8350 c3        1 2VO     -0.077100
     22 C22         8.7200   -0.4280   13.5330 c3        1 2VO     -0.032500
     23 C23         9.4000   -1.7530   13.2410 c3        1 2VO     -0.079400
     24 C24        10.4690   -2.0740   14.2540 c3        1 2VO     -0.090100
     25 C25         8.3480    1.5430    8.9420 cd        1 2VO     -0.161300
     26 C26         9.7450    1.9760    8.9100 c3        1 2VO     -0.004800
     27 C27         7.3660    1.7790    7.9260 cd        1 2VO     -0.134300
     28 C28         7.6040    2.3990    6.6110 c3        1 2VO      0.004900
     29 C29         6.8670    3.7020    6.3710 c3        1 2VO     -0.183400
     30 C30         6.5760    3.9160    4.8840 c         1 2VO      0.911600
     31 O31         5.8550    3.0650    4.2640 o         1 2VO     -0.870800
     32 O32         7.0340    4.9430    4.3090 o         1 2VO     -0.870800
     33 C33         4.5440   -1.2390    6.7500 cd        1 2VO     -0.136300
     34 C34         4.5210   -2.0430    7.9840 c3        1 2VO      0.003900
     35 C39         4.5080   -1.7450    5.4070 cd        1 2VO     -0.139300
     36 C40         4.3080   -3.1400    5.0150 c3        1 2VO     -0.014800
     37 N41         2.7930   -1.3040    1.8290 nc        1 2VO     -0.640100
     38 C42         1.6650   -0.5990    1.2130 c         1 2VO      0.680700
     39 O43         0.7360   -1.1470    0.6220 o         1 2VO     -0.515100
     40 C35         3.3390   -1.7940    8.8980 c3        1 2VO     -0.184400
     41 C36         3.7090   -2.0480   10.3630 c         1 2VO      0.919600
     42 O37         4.5660   -1.2840   10.9200 o         1 2VO     -0.870300
     43 O38         3.1500   -2.9920   10.9840 o         1 2VO     -0.870300
     44 H1         -0.5210    0.7290    0.0590 ha        1 2VO      0.114500
     45 H2         -0.7770    2.5680   -0.0070 ha        1 2VO      0.114500
     46 H3          1.3350    2.9550    1.2120 ha        1 2VO      0.124000
     47 H4          3.3650    3.1330    2.0310 hc        1 2VO      0.086367
     48 H5          4.8410    2.1660    2.4710 hc        1 2VO      0.086367
     49 H6          3.5430    2.4030    3.6810 hc        1 2VO      0.086367
     50 H7          5.2730   -1.6500    2.7610 hc        1 2VO      0.076200
     51 H8          5.5960    0.1440    2.7460 hc        1 2VO      0.076200
     52 H9          5.1150    1.4120    4.9710 hn        1 2VO      0.356700
     53 H10         4.6150    2.2000    7.3290 hc        1 2VO      0.068700
     54 H11         4.0250    0.9410    8.4930 hc        1 2VO      0.068700
     55 H12         5.7250    0.0120   10.0870 hn        1 2VO      0.356700
     56 H13         9.4490    0.2670   11.0880 ha        1 2VO      0.122000
     57 H14         5.7020   -0.1030   12.1980 hn        1 2VO      0.392500
     58 H15         7.7570   -1.5420   15.1740 hc        1 2VO      0.073700
     59 H16         8.2200    1.5140   15.4240 hc        1 2VO      0.035033
     60 H17         7.3520    0.4740   16.6270 hc        1 2VO      0.035033
     61 H18         9.1200    0.2030   16.2940 hc        1 2VO      0.035033
     62 H19         9.5010    0.3610   13.6930 hc        1 2VO      0.054700
     63 H20         9.8570   -1.7070   12.2160 hc        1 2VO      0.056200
     64 H21         8.6330   -2.5720   13.2220 hc        1 2VO      0.056200
     65 H22        11.2870   -1.3140   14.2200 hc        1 2VO      0.024367
     66 H23        10.0440   -2.0820   15.2870 hc        1 2VO      0.024367
     67 H24        10.9120   -3.0770   14.0450 hc        1 2VO      0.024367
     68 H25        10.3680    1.2500    8.3280 hc        1 2VO      0.022033
     69 H26        10.1710    2.0510    9.9420 hc        1 2VO      0.022033
     70 H27         9.8350    2.9780    8.4200 hc        1 2VO      0.022033
     71 H28         7.2990    1.6650    5.8120 hc        1 2VO      0.040200
     72 H29         8.7060    2.5780    6.4830 hc        1 2VO      0.040200
     73 H30         5.8900    3.7070    6.9180 hc        1 2VO      0.029700
     74 H31         7.4730    4.5600    6.7560 hc        1 2VO      0.029700
     75 H33         4.5460   -3.1330    7.7100 hc        1 2VO      0.041700
     76 H34         5.4670   -1.8290    8.5590 hc        1 2VO      0.041700
     77 H35         3.4810   -3.5990    5.6140 hc        1 2VO      0.028700
     78 H36         4.0470   -3.2230    3.9300 hc        1 2VO      0.028700
     79 H37         5.2380   -3.7360    5.2010 hc        1 2VO      0.028700
     80 H38         2.9830   -0.7370    8.8060 hc        1 2VO      0.029700
     81 H39         2.4880   -2.4620    8.6130 hc        1 2VO      0.029700
@<TRIPOS>BOND
     1    1    2 2   
     2    1   44 1   
     3    1   45 1   
     4    2    3 1   
     5    2   46 1   
     6    3    4 2   
     7    3   38 1   
     8    4    5 1   
     9    4    6 1   
    10    5   47 1   
    11    5   48 1   
    12    5   49 1   
    13    6    7 1   
    14    6   37 2   
    15    7    8 1   
    16    7   50 1   
    17    7   51 1   
    18    8    9 1   
    19    8   35 2   
    20    9   10 1   
    21    9   52 1   
    22   10   11 1   
    23   10   33 2   
    24   11   12 1   
    25   11   53 1   
    26   11   54 1   
    27   12   13 1   
    28   12   27 2   
    29   13   14 1   
    30   13   55 1   
    31   14   15 1   
    32   14   25 2   
    33   15   16 2   
    34   15   56 1   
    35   16   17 1   
    36   16   22 1   
    37   17   18 1   
    38   17   57 1   
    39   18   19 2   
    40   18   20 1   
    41   20   21 1   
    42   20   22 1   
    43   20   58 1   
    44   21   59 1   
    45   21   60 1   
    46   21   61 1   
    47   22   23 1   
    48   22   62 1   
    49   23   24 1   
    50   23   63 1   
    51   23   64 1   
    52   24   65 1   
    53   24   66 1   
    54   24   67 1   
    55   25   26 1   
    56   25   27 1   
    57   26   68 1   
    58   26   69 1   
    59   26   70 1   
    60   27   28 1   
    61   28   29 1   
    62   28   71 1   
    63   28   72 1   
    64   29   30 1   
    65   29   73 1   
    66   29   74 1   
    67   30   31 1   
    68   30   32 1   
    69   33   34 1   
    70   33   35 1   
    71   34   40 1   
    72   34   75 1   
    73   34   76 1   
    74   35   36 1   
    75   36   77 1   
    76   36   78 1   
    77   36   79 1   
    78   37   38 1   
    79   38   39 2   
    80   40   41 1   
    81   40   80 1   
    82   40   81 1   
    83   41   42 1   
    84   41   43 1   
@<TRIPOS>SUBSTRUCTURE
     1 2VO         1 TEMP              0 ****  ****    0 ROOT
