@<TRIPOS>MOLECULE
2VO
   81    84     1     0     0
SMALL
bcc


@<TRIPOS>ATOM
      1 C01        -0.1790    1.7870    0.3460 c2        1 2VO     -0.231000
      2 C02         0.9670    1.9840    1.0040 ce        1 2VO     -0.084000
      3 C03         1.8560    0.9490    1.4470 cc        1 2VO     -0.223200
      4 C04         3.0250    1.0790    2.1440 cd        1 2VO     -0.118800
      5 C05         3.6960    2.2850    2.6140 c3        1 2VO     -0.080900
      6 C06         3.5610   -0.3340    2.3530 cd        1 2VO      0.513600
      7 C07         4.8520   -0.5930    3.0570 c3        1 2VO     -0.040400
      8 C08         4.7050   -0.6110    4.5290 cc        1 2VO     -0.165600
      9 N09         4.8190    0.5330    5.3140 na        1 2VO     -0.150100
     10 C10         4.7380    0.1670    6.6530 cc        1 2VO     -0.095600
     11 C11         4.8170    1.1650    7.7480 c3        1 2VO      0.052200
     12 C12         6.1530    1.1910    8.3940 cc        1 2VO     -0.100600
     13 N13         6.3800    0.6070    9.6350 na        1 2VO     -0.140100
     14 C14         7.7130    0.7970    9.9850 cc        1 2VO     -0.102100
     15 C15         8.3530    0.3140   11.1760 ce        1 2VO     -0.113200
     16 C16         7.8260   -0.0460   12.3650 c2        1 2VO     -0.018600
     17 N17         6.4870    0.0150   12.8050 n         1 2VO     -0.439100
     18 C18         6.4000   -0.2850   14.1660 c         1 2VO      0.693500
     19 O19         5.3630   -0.2680   14.8460 o         1 2VO     -0.628500
     20 C20         7.8000   -0.5740   14.7360 c3        1 2VO     -0.157700
     21 C21         8.1540    0.3980   15.8310 c3        1 2VO     -0.077100
     22 C22         8.7360   -0.4770   13.5170 c3        1 2VO     -0.032500
     23 C23         9.4270   -1.7920   13.2070 c3        1 2VO     -0.079400
     24 C24        10.5010   -2.1160   14.2140 c3        1 2VO     -0.090100
     25 C25         8.3390    1.5470    8.9510 cd        1 2VO     -0.161300
     26 C26         9.7330    1.9900    8.9220 c3        1 2VO     -0.004800
     27 C27         7.3530    1.7890    7.9400 cd        1 2VO     -0.134300
     28 C28         7.5830    2.4270    6.6320 c3        1 2VO      0.004900
     29 C29         6.8370    3.7270    6.4110 c3        1 2VO     -0.183400
     30 C30         6.5410    3.9590    4.9270 c         1 2VO      0.911600
     31 O31         5.8250    3.1110    4.2980 o         1 2VO     -0.870800
     32 O32         6.9910    4.9960    4.3640 o         1 2VO     -0.870800
     33 C33         4.5490   -1.2330    6.7330 cd        1 2VO     -0.136300
     34 C34         4.5350   -2.0530    7.9560 c3        1 2VO      0.003900
     35 C39         4.5120   -1.7220    5.3830 cd        1 2VO     -0.139300
     36 C40         4.3210   -3.1140    4.9730 c3        1 2VO     -0.014800
     37 N41         2.7840   -1.2460    1.8150 nc        1 2VO     -0.640100
     38 C42         1.6510   -0.5410    1.2120 c         1 2VO      0.680700
     39 O43         0.7230   -1.0880    0.6160 o         1 2VO     -0.515100
     40 C35         3.3530   -1.8240    8.8760 c3        1 2VO     -0.184400
     41 C36         3.7290   -2.0940   10.3360 c         1 2VO      0.920600
     42 O37         4.5820   -1.3310   10.9020 o         1 2VO     -0.870300
     43 O38         3.1780   -3.0500   10.9470 o         1 2VO     -0.870300
     44 H1         -0.5480    0.7860    0.0810 ha        1 2VO      0.114500
     45 H2         -0.8160    2.6250    0.0390 ha        1 2VO      0.114500
     46 H3          1.2970    3.0100    1.2560 ha        1 2VO      0.124000
     47 H4          3.5160    2.4410    3.7120 hc        1 2VO      0.086367
     48 H5          3.3280    3.1910    2.0730 hc        1 2VO      0.086367
     49 H6          4.8120    2.2290    2.4960 hc        1 2VO      0.086367
     50 H7          5.5800    0.2080    2.7440 hc        1 2VO      0.076200
     51 H8          5.2690   -1.5880    2.7360 hc        1 2VO      0.076200
     52 H9          5.0970    1.4440    4.9860 hn        1 2VO      0.356700
     53 H10         4.0190    0.9200    8.5050 hc        1 2VO      0.068700
     54 H11         4.5980    2.1980    7.3550 hc        1 2VO      0.068700
     55 H12         5.7290   -0.0160   10.0820 hn        1 2VO      0.356700
     56 H13         9.4540    0.2550   11.0790 ha        1 2VO      0.122000
     57 H14         5.7120   -0.1600   12.1920 hn        1 2VO      0.392500
     58 H15         7.7860   -1.6190   15.1460 hc        1 2VO      0.073700
     59 H16         7.3670    0.3750   16.6250 hc        1 2VO      0.035033
     60 H17         9.1370    0.1230   16.2850 hc        1 2VO      0.035033
     61 H18         8.2240    1.4380   15.4320 hc        1 2VO      0.035033
     62 H19         9.5110    0.3180   13.6850 hc        1 2VO      0.054700
     63 H20         8.6670   -2.6170   13.1790 hc        1 2VO      0.056200
     64 H21         9.8810   -1.7290   12.1810 hc        1 2VO      0.056200
     65 H22        10.9510   -3.1130   13.9910 hc        1 2VO      0.024367
     66 H23        10.0780   -2.1400   15.2480 hc        1 2VO      0.024367
     67 H24        11.3120   -1.3490   14.1880 hc        1 2VO      0.024367
     68 H25        10.1590    2.0600    9.9540 hc        1 2VO      0.021700
     69 H26         9.8160    2.9970    8.4390 hc        1 2VO      0.021700
     70 H27        10.3610    1.2730    8.3330 hc        1 2VO      0.021700
     71 H28         7.2810    1.7010    5.8250 hc        1 2VO      0.040200
     72 H29         8.6840    2.6140    6.5040 hc        1 2VO      0.040200
     73 H30         5.8620    3.7190    6.9590 hc        1 2VO      0.029700
     74 H31         7.4380    4.5850    6.8050 hc        1 2VO      0.029700
     75 H33         5.4810   -1.8390    8.5320 hc        1 2VO      0.041700
     76 H34         4.5670   -3.1390    7.6680 hc        1 2VO      0.041700
     77 H35         4.0570   -3.1840    3.8890 hc        1 2VO      0.028700
     78 H36         5.2560   -3.7050    5.1490 hc        1 2VO      0.028700
     79 H37         3.4990   -3.5860    5.5690 hc        1 2VO      0.028700
     80 H38         2.5060   -2.4950    8.5840 hc        1 2VO      0.029700
     81 H39         2.9900   -0.7690    8.7980 hc        1 2VO      0.029700
@<TRIPOS>BOND
     1    1    2 2   
     2    1   44 1   
     3    1   45 1   
     4    2    3 1   
     5    2   46 1   
     6    3    4 2   
     7    3   38 1   
     8    4    5 1   
     9    4    6 1   
    10    5   47 1   
    11    5   48 1   
    12    5   49 1   
    13    6    7 1   
    14    6   37 2   
    15    7    8 1   
    16    7   50 1   
    17    7   51 1   
    18    8    9 1   
    19    8   35 2   
    20    9   10 1   
    21    9   52 1   
    22   10   11 1   
    23   10   33 2   
    24   11   12 1   
    25   11   53 1   
    26   11   54 1   
    27   12   13 1   
    28   12   27 2   
    29   13   14 1   
    30   13   55 1   
    31   14   15 1   
    32   14   25 2   
    33   15   16 2   
    34   15   56 1   
    35   16   17 1   
    36   16   22 1   
    37   17   18 1   
    38   17   57 1   
    39   18   19 2   
    40   18   20 1   
    41   20   21 1   
    42   20   22 1   
    43   20   58 1   
    44   21   59 1   
    45   21   60 1   
    46   21   61 1   
    47   22   23 1   
    48   22   62 1   
    49   23   24 1   
    50   23   63 1   
    51   23   64 1   
    52   24   65 1   
    53   24   66 1   
    54   24   67 1   
    55   25   26 1   
    56   25   27 1   
    57   26   68 1   
    58   26   69 1   
    59   26   70 1   
    60   27   28 1   
    61   28   29 1   
    62   28   71 1   
    63   28   72 1   
    64   29   30 1   
    65   29   73 1   
    66   29   74 1   
    67   30   31 1   
    68   30   32 1   
    69   33   34 1   
    70   33   35 1   
    71   34   40 1   
    72   34   75 1   
    73   34   76 1   
    74   35   36 1   
    75   36   77 1   
    76   36   78 1   
    77   36   79 1   
    78   37   38 1   
    79   38   39 2   
    80   40   41 1   
    81   40   80 1   
    82   40   81 1   
    83   41   42 1   
    84   41   43 1   
@<TRIPOS>SUBSTRUCTURE
     1 2VO         1 TEMP              0 ****  ****    0 ROOT
