@<TRIPOS>MOLECULE
2VP
   46    47     1     0     0
SMALL
bcc


@<TRIPOS>ATOM
      1 C2'         1.0680   -1.3600   -0.0150 c3        1 2VP     -0.040200
      2 C1'         2.3640   -1.2000    0.7480 c3        1 2VP     -0.072400
      3 C18         2.1430   -0.4640    2.0530 c3        1 2VP     -0.033100
      4 C5          1.1520   -1.1920    2.8900 ca        1 2VP     -0.075300
      5 C4          1.2900   -1.2290    4.2780 ca        1 2VP     -0.132000
      6 C3          0.3880   -1.9420    5.0630 ca        1 2VP     -0.138000
      7 C2         -0.6600   -2.6430    4.4600 ca        1 2VP     -0.085300
      8 C7'        -1.6140   -3.4320    5.2740 c3        1 2VP     -0.049800
      9 C1         -0.8040   -2.6030    3.0690 ca        1 2VP     -0.125000
     10 C6          0.0800   -1.8670    2.2690 ca        1 2VP     -0.017800
     11 C7         -0.0960   -1.7880    0.8190 ce        1 2VP     -0.083400
     12 C8         -1.2830   -2.0420    0.2310 cf        1 2VP     -0.084000
     13 C9         -1.5500   -1.9550   -1.2010 cf        1 2VP     -0.154200
     14 C19        -2.3240   -0.7540   -1.6090 c3        1 2VP     -0.042900
     15 C10        -1.1880   -2.8930   -2.0990 ce        1 2VP     -0.073000
     16 C11        -0.4390   -4.0860   -1.7850 ce        1 2VP     -0.208000
     17 C12        -0.2140   -5.1060   -2.6330 cf        1 2VP     -0.054000
     18 C13        -0.6990   -5.2550   -3.9950 cf        1 2VP     -0.162200
     19 C20         0.2910   -5.8290   -4.9450 c3        1 2VP     -0.047900
     20 C14        -1.9530   -4.9370   -4.3600 ce        1 2VP     -0.144200
     21 C15        -2.5290   -5.0130   -5.7580 c         1 2VP      0.894800
     22 O2         -2.4120   -6.0790   -6.4260 o         1 2VP     -0.832300
     23 O1         -3.1280   -3.9800   -6.1720 o         1 2VP     -0.832300
     24 H1          0.8030   -0.3810   -0.5040 hc        1 2VP      0.059200
     25 H2          1.2120   -2.1090   -0.8430 hc        1 2VP      0.059200
     26 H3          2.8050   -2.2090    0.9600 hc        1 2VP      0.040700
     27 H4          3.1000   -0.6370    0.1170 hc        1 2VP      0.040700
     28 H5          1.7610    0.5720    1.8450 hc        1 2VP      0.043700
     29 H6          3.1160   -0.3590    2.6010 hc        1 2VP      0.043700
     30 H7          2.1240   -0.6930    4.7550 ha        1 2VP      0.122000
     31 H8          0.5060   -1.9610    6.1560 ha        1 2VP      0.122000
     32 H9         -1.5010   -4.5220    5.0510 hc        1 2VP      0.039367
     33 H10        -1.4410   -3.2770    6.3670 hc        1 2VP      0.039367
     34 H11        -2.6670   -3.1360    5.0380 hc        1 2VP      0.039367
     35 H12        -1.6240   -3.1710    2.6050 ha        1 2VP      0.137000
     36 H13        -2.1700   -2.3090    0.8340 ha        1 2VP      0.119000
     37 H14        -2.5830   -0.7890   -2.6960 hc        1 2VP      0.035700
     38 H15        -3.2730   -0.6870   -1.0200 hc        1 2VP      0.035700
     39 H16        -1.7260    0.1720   -1.4150 hc        1 2VP      0.035700
     40 H17        -1.4700   -2.7660   -3.1630 ha        1 2VP      0.156000
     41 H18        -0.0170   -4.1300   -0.7650 ha        1 2VP      0.109000
     42 H19         0.4250   -5.9410   -2.2870 ha        1 2VP      0.101000
     43 H20        -0.2020   -6.0610   -5.9250 hc        1 2VP      0.036700
     44 H21         0.7260   -6.7730   -4.5320 hc        1 2VP      0.036700
     45 H22         1.1260   -5.1060   -5.1180 hc        1 2VP      0.036700
     46 H23        -2.6690   -4.5510   -3.6150 ha        1 2VP      0.104000
@<TRIPOS>BOND
     1    1    2 1   
     2    1   11 1   
     3    1   24 1   
     4    1   25 1   
     5    2    3 1   
     6    2   26 1   
     7    2   27 1   
     8    3    4 1   
     9    3   28 1   
    10    3   29 1   
    11    4    5 ar  
    12    4   10 ar  
    13    5    6 ar  
    14    5   30 1   
    15    6    7 ar  
    16    6   31 1   
    17    7    8 1   
    18    7    9 ar  
    19    8   32 1   
    20    8   33 1   
    21    8   34 1   
    22    9   10 ar  
    23    9   35 1   
    24   10   11 1   
    25   11   12 2   
    26   12   13 1   
    27   12   36 1   
    28   13   14 1   
    29   13   15 2   
    30   14   37 1   
    31   14   38 1   
    32   14   39 1   
    33   15   16 1   
    34   15   40 1   
    35   16   17 2   
    36   16   41 1   
    37   17   18 1   
    38   17   42 1   
    39   18   19 1   
    40   18   20 2   
    41   19   43 1   
    42   19   44 1   
    43   19   45 1   
    44   20   21 1   
    45   20   46 1   
    46   21   22 1   
    47   21   23 1   
@<TRIPOS>SUBSTRUCTURE
     1 2VP         1 TEMP              0 ****  ****    0 ROOT
