@<TRIPOS>MOLECULE
2VP
   46    47     1     0     0
SMALL
bcc


@<TRIPOS>ATOM
      1 C2'        -0.1110    0.1490    0.1700 c3        1 2VP     -0.033200
      2 C1'         1.3810    0.4020    0.2450 c3        1 2VP     -0.073400
      3 C18         1.8750    0.3200    1.6730 c3        1 2VP     -0.031100
      4 C5          1.3330   -0.8510    2.4140 ca        1 2VP     -0.076300
      5 C4          1.9510   -1.2220    3.6120 ca        1 2VP     -0.134000
      6 C3          1.4620   -2.2770    4.3750 ca        1 2VP     -0.140000
      7 C2          0.3290   -2.9780    3.9490 ca        1 2VP     -0.084300
      8 C7'        -0.2050   -4.1060    4.7450 c3        1 2VP     -0.049800
      9 C1         -0.2910   -2.6120    2.7510 ca        1 2VP     -0.127000
     10 C6          0.2030   -1.5630    1.9610 ca        1 2VP     -0.012800
     11 C7         -0.4440   -1.2060    0.6980 ce        1 2VP     -0.104400
     12 C8         -1.2550   -2.0610    0.0400 cf        1 2VP     -0.059000
     13 C9         -1.9920   -1.7920   -1.1830 cf        1 2VP     -0.179200
     14 C19        -2.8300   -0.5660   -1.2350 c3        1 2VP     -0.038900
     15 C10        -1.9850   -2.6470   -2.2330 ce        1 2VP     -0.044000
     16 C11        -1.2330   -3.8700   -2.3110 ce        1 2VP     -0.250000
     17 C12        -1.3070   -4.6860   -3.3850 cf        1 2VP     -0.017000
     18 C13        -0.5790   -5.9300   -3.5310 cf        1 2VP     -0.164200
     19 C20         0.3810   -6.2950   -2.4560 c3        1 2VP     -0.045900
     20 C14        -0.7570   -6.7360   -4.5980 ce        1 2VP     -0.133200
     21 C15        -1.7240   -6.5500   -5.7470 c         1 2VP      0.889800
     22 O2         -2.1950   -7.6080   -6.2550 o         1 2VP     -0.828800
     23 O1         -2.0050   -5.3880   -6.1580 o         1 2VP     -0.828800
     24 H1         -0.4460    0.2450   -0.8970 hc        1 2VP      0.048200
     25 H2         -0.6580    0.9250    0.7690 hc        1 2VP      0.048200
     26 H3          1.6140    1.4150   -0.1730 hc        1 2VP      0.042700
     27 H4          1.9180   -0.3550   -0.3850 hc        1 2VP      0.042700
     28 H5          1.5740    1.2530    2.2250 hc        1 2VP      0.040700
     29 H6          2.9980    0.2830    1.6770 hc        1 2VP      0.040700
     30 H7          2.8390   -0.6680    3.9540 ha        1 2VP      0.121000
     31 H8          1.9620   -2.5590    5.3120 ha        1 2VP      0.121000
     32 H9          0.1240   -5.0790    4.2990 hc        1 2VP      0.039700
     33 H10         0.1590   -4.0640    5.8010 hc        1 2VP      0.039700
     34 H11        -1.3230   -4.0900    4.7560 hc        1 2VP      0.039700
     35 H12        -1.1910   -3.1620    2.4330 ha        1 2VP      0.136000
     36 H13        -1.3960   -3.0890    0.4240 ha        1 2VP      0.123000
     37 H14        -3.9040   -0.8390   -1.3920 hc        1 2VP      0.030033
     38 H15        -2.7520    0.0190   -0.2860 hc        1 2VP      0.030033
     39 H16        -2.5150    0.0930   -2.0820 hc        1 2VP      0.030033
     40 H17        -2.5980   -2.4000   -3.1210 ha        1 2VP      0.124000
     41 H18        -0.5870   -4.1130   -1.4520 ha        1 2VP      0.113000
     42 H19        -1.9510   -4.4260   -4.2550 ha        1 2VP      0.183000
     43 H20         1.1420   -5.4870   -2.3210 hc        1 2VP      0.022700
     44 H21         0.9180   -7.2460   -2.6950 hc        1 2VP      0.022700
     45 H22        -0.1560   -6.4330   -1.4840 hc        1 2VP      0.022700
     46 H23        -0.1800   -7.6740   -4.6720 ha        1 2VP      0.104000
@<TRIPOS>BOND
     1    1    2 1   
     2    1   11 1   
     3    1   24 1   
     4    1   25 1   
     5    2    3 1   
     6    2   26 1   
     7    2   27 1   
     8    3    4 1   
     9    3   28 1   
    10    3   29 1   
    11    4    5 ar  
    12    4   10 ar  
    13    5    6 ar  
    14    5   30 1   
    15    6    7 ar  
    16    6   31 1   
    17    7    8 1   
    18    7    9 ar  
    19    8   32 1   
    20    8   33 1   
    21    8   34 1   
    22    9   10 ar  
    23    9   35 1   
    24   10   11 1   
    25   11   12 2   
    26   12   13 1   
    27   12   36 1   
    28   13   14 1   
    29   13   15 2   
    30   14   37 1   
    31   14   38 1   
    32   14   39 1   
    33   15   16 1   
    34   15   40 1   
    35   16   17 2   
    36   16   41 1   
    37   17   18 1   
    38   17   42 1   
    39   18   19 1   
    40   18   20 2   
    41   19   43 1   
    42   19   44 1   
    43   19   45 1   
    44   20   21 1   
    45   20   46 1   
    46   21   22 1   
    47   21   23 1   
@<TRIPOS>SUBSTRUCTURE
     1 2VP         1 TEMP              0 ****  ****    0 ROOT
