@<TRIPOS>MOLECULE
2VQ
   29    27     1     0     0
SMALL
bcc


@<TRIPOS>ATOM
      1 S1          0.6770   -1.0450   -0.6830 s6        1 2VQ      1.398900
      2 O1          1.4050    0.0830   -0.3850 o         1 2VQ     -0.537800
      3 O2         -0.4400   -1.4290    0.0220 o         1 2VQ     -0.537800
      4 N5         -1.2100    1.2500   -0.7510 n3        1 2VQ     -0.961800
      5 C1         -2.0480    1.9560   -1.6750 c3        1 2VQ      0.076500
      6 C2         -2.8480    3.1080   -1.0980 c2        1 2VQ      0.350200
      7 N3         -6.0940    6.2210   -2.6600 n1        1 2VQ     -0.145800
      8 C3         -4.5210    4.8570   -1.0780 c3        1 2VQ      0.042800
      9 C4         -5.3960    5.5860   -1.9820 c1        1 2VQ      0.123700
     10 C5         -4.0930    3.4710   -3.1260 c2        1 2VQ     -0.223100
     11 C6         -5.3000    3.1010   -3.5730 c2        1 2VQ     -0.075000
     12 N2         -3.7720    3.7710   -1.7600 nh        1 2VQ     -0.043300
     13 O4         -4.7920    3.4680    0.8170 o         1 2VQ     -0.120000
     14 O5         -6.3960    4.7950    0.3900 o         1 2VQ     -0.120000
     15 N1          1.8780   -2.4170   -0.3390 n4        1 2VQ     -0.814500
     16 H1         -1.7430    0.8060   -0.0230 hn        1 2VQ      0.398800
     17 H2         -0.5030    1.8410   -0.3500 hn        1 2VQ      0.398800
     18 H3         -1.4040    2.3780   -2.5080 h1        1 2VQ      0.124200
     19 H4         -2.7700    1.2180   -2.1440 h1        1 2VQ      0.124200
     20 H5         -2.6360    3.4100   -0.0400 h4        1 2VQ      0.089800
     21 H6         -3.7690    5.5820   -0.6150 h2        1 2VQ      0.168700
     22 H7         -3.2160    3.6080   -3.7940 h4        1 2VQ      0.196000
     23 H8         -6.1990    2.9720   -2.9500 ha        1 2VQ      0.180000
     24 H9         -5.4440    2.9010   -4.6520 ha        1 2VQ      0.180000
     25 H10         1.4920   -3.0830    0.3410 hn        1 2VQ      0.484133
     26 H11         2.1440   -2.9630   -1.1610 hn        1 2VQ      0.484133
     27 H52         0.6180   -1.2890   -1.8640 hs        1 2VQ      0.031800
     28 H13         2.7490   -2.0530    0.0650 hn        1 2VQ      0.484133
     29 N4         -5.3450    4.3100    0.1720 no        1 2VQ      0.242300
@<TRIPOS>BOND
     1    1    2 2   
     2    1    3 2   
     3    1   15 1   
     4    1   27 1   
     5    4    5 1   
     6    4   16 1   
     7    4   17 1   
     8    5    6 1   
     9    5   18 1   
    10    5   19 1   
    11    6   12 2   
    12    6   20 1   
    13    7    9 3   
    14    8    9 1   
    15    8   12 1   
    16    8   21 1   
    17    8   29 1   
    18   10   11 2   
    19   10   12 1   
    20   10   22 1   
    21   11   23 1   
    22   11   24 1   
    23   13   29 1   
    24   14   29 1   
    25   15   25 1   
    26   15   26 1   
    27   15   28 1   
@<TRIPOS>SUBSTRUCTURE
     1 2VQ         1 TEMP              0 ****  ****    0 ROOT
