@<TRIPOS>MOLECULE
2VQ
   27    22     1     0     0
SMALL
bcc


@<TRIPOS>ATOM
      1 S1          0.7380    2.3290    2.5240 ss        1 2VQ      2.818000
      2 O1         -0.6650    2.5200    2.8580 o         1 2VQ     -0.937000
      3 O2          1.0080    3.5100    1.7670 o         1 2VQ     -0.937000
      4 N5          0.9590    0.9670    1.6090 n2        1 2VQ     -0.891000
      5 C1         -0.0290    0.5880    0.6460 c3        1 2VQ     -0.023000
      6 C2          0.6400   -0.2550   -0.4770 c3        1 2VQ     -0.060000
      7 N3         -1.5900   -1.6750   -2.9560 n2        1 2VQ     -0.153000
      8 N4         -0.1060   -3.1040    0.0040 n2        1 2VQ      0.616000
      9 C3         -0.5870   -2.2960   -1.0820 c2        1 2VQ     -0.236000
     10 C4         -1.3330   -2.7400   -2.1530 c1        1 2VQ     -0.035000
     11 C5         -1.0180   -0.5850   -2.4020 c1        1 2VQ      0.031000
     12 C6         -1.0920    0.8280   -2.9440 c2        1 2VQ     -0.178000
     13 N2         -0.3930   -0.9760   -1.2310 n3        1 2VQ     -0.117000
     14 O4         -0.6720   -2.9870    1.2520 os        1 2VQ     -0.390000
     15 O5          0.7750   -3.9190   -0.1890 o         1 2VQ     -0.343000
     16 N1          1.6460    2.2640    3.8410 n2        1 2VQ     -0.953000
     17 H1          1.6480    0.4130    1.7870 hn        1 2VQ      0.252000
     18 H2         -0.4380    1.4100    0.2480 h1        1 2VQ      0.105500
     19 H3         -0.7280    0.0530    1.0870 h1        1 2VQ      0.105500
     20 H4          1.1310    0.3390   -1.0830 h1        1 2VQ      0.130000
     21 H5          1.2700   -0.9090   -0.0700 h1        1 2VQ      0.130000
     22 H6         -1.6250   -3.6560   -2.3070 DU        1 2VQ      0.207000
     23 H7         -0.1980    1.1520   -3.1270 ha        1 2VQ      0.121333
     24 H8         -1.6080    0.8320   -3.7590 ha        1 2VQ      0.121333
     25 H9         -1.5420    1.4380   -2.2520 ha        1 2VQ      0.121333
     26 H10         2.5430    2.3230    3.7730 hn        1 2VQ      0.246000
     27 H11         1.2680    2.1370    4.6350 hn        1 2VQ      0.246000
@<TRIPOS>BOND
     1    1    2 1   
     2    1    3 1   
     3    4    5 1   
     4    4   17 1   
     5    5    6 1   
     6    5   18 1   
     7    5   19 1   
     8    6   13 1   
     9    6   20 1   
    10    6   21 1   
    11    7   10 1   
    12    7   11 1   
    13    8    9 1   
    14    8   15 1   
    15    9   10 1   
    16    9   13 1   
    17   11   13 1   
    18   12   23 1   
    19   12   24 1   
    20   12   25 1   
    21   16   26 1   
    22   16   27 1   
@<TRIPOS>SUBSTRUCTURE
     1 2VQ         1 TEMP              0 ****  ****    0 ROOT
