@<TRIPOS>MOLECULE
2VQ
   27    27     1     0     0
SMALL
bcc


@<TRIPOS>ATOM
      1 S1         -3.2720    0.1490   -0.0000 s6        1 2VQ      1.590800
      2 O1         -4.1280    0.2470    1.1260 o         1 2VQ     -0.645300
      3 O2         -2.8480    1.3430   -0.6310 o         1 2VQ     -0.645300
      4 N5         -1.9570   -0.7010    0.4790 n3        1 2VQ     -0.918100
      5 C1         -0.6610   -0.6040   -0.1120 c3        1 2VQ      0.211800
      6 C2          0.4710   -0.4860    0.9460 c3        1 2VQ      0.006300
      7 N3          3.6810   -1.5040   -0.5200 nc        1 2VQ     -0.670000
      8 C3          2.6140    0.4710   -0.0760 cd        1 2VQ     -0.352800
      9 C4          3.7800   -0.1360   -0.6220 cc        1 2VQ      0.422200
     10 C5          2.4750   -1.7640    0.0770 cd        1 2VQ      0.452800
     11 C6          1.9510   -3.1150    0.4060 c3        1 2VQ     -0.136400
     12 N2          1.7870   -0.5790    0.3800 na        1 2VQ     -0.161900
     13 O4          1.3550    2.2920    0.5840 o         1 2VQ     -0.203500
     14 O5          3.1550    2.6520   -0.4510 o         1 2VQ     -0.203500
     15 N1         -3.9950   -0.7720   -1.1050 n3        1 2VQ     -1.029700
     16 H1         -2.0110   -1.3330    1.2420 hn        1 2VQ      0.442800
     17 H2         -0.4650   -1.5160   -0.7510 h1        1 2VQ      0.061700
     18 H3         -0.6270    0.3100   -0.7760 h1        1 2VQ      0.061700
     19 H4          0.3710    0.5010    1.4860 h1        1 2VQ      0.089700
     20 H5          0.3720   -1.3200    1.7000 h1        1 2VQ      0.089700
     21 H6          4.6440    0.3720   -1.0600 h4        1 2VQ      0.073100
     22 H7          1.8770   -3.2340    1.5170 hc        1 2VQ      0.069033
     23 H8          0.9360   -3.2570   -0.0430 hc        1 2VQ      0.069033
     24 H9          2.6380   -3.9020    0.0050 hc        1 2VQ      0.069033
     25 H10        -3.8340   -0.6880   -2.0760 hn        1 2VQ      0.448300
     26 H11        -4.6940   -1.4380   -0.8900 hn        1 2VQ      0.448300
     27 N4          2.3480    1.9010    0.0280 no        1 2VQ      0.359200
@<TRIPOS>BOND
     1    1    2 2   
     2    1    3 2   
     3    1    4 1   
     4    1   15 1   
     5    4    5 1   
     6    4   16 1   
     7    5    6 1   
     8    5   17 1   
     9    5   18 1   
    10    6   12 1   
    11    6   19 1   
    12    6   20 1   
    13    7    9 1   
    14    7   10 2   
    15    8    9 2   
    16    8   12 1   
    17    8   27 1   
    18    9   21 1   
    19   10   11 1   
    20   10   12 1   
    21   11   22 1   
    22   11   23 1   
    23   11   24 1   
    24   13   27 1   
    25   14   27 1   
    26   15   25 1   
    27   15   26 1   
@<TRIPOS>SUBSTRUCTURE
     1 2VQ         1 TEMP              0 ****  ****    0 ROOT
