@<TRIPOS>MOLECULE
2VQ
   29    27     1     0     0
SMALL
bcc


@<TRIPOS>ATOM
      1 S1          0.1820   -0.8390   -0.4850 s6        1 2VQ      1.407900
      2 O1          0.0840   -0.4930    0.8420 o         1 2VQ     -0.544300
      3 O2         -0.9060   -1.0030   -1.3140 o         1 2VQ     -0.544300
      4 N5         -0.6570    1.8100   -0.6320 n8        1 2VQ     -0.972800
      5 C1         -1.7890    2.0820   -1.4780 c3        1 2VQ      0.062500
      6 C2         -2.5770    3.3310   -1.1480 c2        1 2VQ      0.359200
      7 N3         -6.6200    5.3540   -2.6460 n1        1 2VQ     -0.143800
      8 C3         -4.4600    4.8540   -1.2590 c3        1 2VQ      0.046800
      9 C4         -5.6560    5.1030   -2.0480 c1        1 2VQ      0.123700
     10 C5         -4.3120    2.8580   -2.7560 c2        1 2VQ     -0.227100
     11 C6         -4.3500    3.1610   -4.0600 c2        1 2VQ     -0.077000
     12 N2         -3.7010    3.6710   -1.7410 nh        1 2VQ     -0.046300
     13 O4         -4.0700    4.1200    0.9640 o         1 2VQ     -0.118500
     14 O5         -5.8360    5.2590    0.6400 o         1 2VQ     -0.118500
     15 N1          0.8850   -2.5600   -0.3940 nz        1 2VQ     -0.814500
     16 H1         -0.9050    1.8220    0.3440 hn        1 2VQ      0.401800
     17 H2          0.0910    2.4610   -0.7920 hn        1 2VQ      0.401800
     18 H3         -2.4920    1.1890   -1.4220 h1        1 2VQ      0.131700
     19 H4         -1.4380    2.1580   -2.5540 h1        1 2VQ      0.131700
     20 H5         -2.1850    3.9910   -0.3310 h4        1 2VQ      0.090800
     21 H6         -3.7760    5.7680   -1.2930 h2        1 2VQ      0.168700
     22 H7         -4.7860    1.9480   -2.3290 h4        1 2VQ      0.201000
     23 H8         -3.9140    4.0630   -4.5180 ha        1 2VQ      0.179000
     24 H9         -4.8570    2.4740   -4.7640 ha        1 2VQ      0.179000
     25 H10         0.2820   -3.2330   -0.8790 hn        1 2VQ      0.481800
     26 H11         1.8180   -2.6580   -0.7990 hn        1 2VQ      0.481800
     27 H52         1.1580   -0.3980   -1.0430 hs        1 2VQ      0.031800
     28 H13         0.9560   -2.8740    0.5810 hn        1 2VQ      0.481800
     29 N4         -4.8500    4.7220    0.2840 no        1 2VQ      0.245300
@<TRIPOS>BOND
     1    1    2 2   
     2    1    3 2   
     3    1   15 1   
     4    1   27 1   
     5    4    5 1   
     6    4   16 1   
     7    4   17 1   
     8    5    6 1   
     9    5   18 1   
    10    5   19 1   
    11    6   12 2   
    12    6   20 1   
    13    7    9 3   
    14    8    9 1   
    15    8   12 1   
    16    8   21 1   
    17    8   29 1   
    18   10   11 2   
    19   10   12 1   
    20   10   22 1   
    21   11   23 1   
    22   11   24 1   
    23   13   29 1   
    24   14   29 1   
    25   15   25 1   
    26   15   26 1   
    27   15   28 1   
@<TRIPOS>SUBSTRUCTURE
     1 2VQ         1 TEMP              0 ****  ****    0 ROOT
