@<TRIPOS>MOLECULE
2VQ
   27    26     1     0     0
SMALL
bcc


@<TRIPOS>ATOM
      1 S1         -1.5080   -0.0230   -0.4490 s6        1 2VQ      1.617800
      2 O1         -1.7180    0.8780   -1.5440 o         1 2VQ     -0.692800
      3 O2         -0.9900   -1.2970   -0.8150 o         1 2VQ     -0.692800
      4 N5         -0.4900    0.6500    0.5940 n3        1 2VQ     -1.026700
      5 C1         -1.0600    3.7160   -2.8980 c2        1 2VQ     -0.200000
      6 C2         -2.2280    4.1880   -2.4380 c2        1 2VQ     -0.101100
      7 N3         -4.7790    1.6100   -1.8940 n1        1 2VQ     -0.861400
      8 C3         -4.1020    3.6140   -0.8390 c3        1 2VQ     -0.155200
      9 C4         -5.0740    2.3200   -0.8120 c1        1 2VQ      0.358700
     10 C5         -3.7600    2.2040   -2.6320 ce        1 2VQ      0.651600
     11 C6         -3.2420    1.6510   -3.9090 c3        1 2VQ     -0.166400
     12 N2         -3.3380    3.4070   -2.0840 nh        1 2VQ     -0.234300
     13 O4         -2.5790    2.7410    0.7470 o         1 2VQ     -0.218500
     14 O5         -3.3580    4.6590    1.1180 o         1 2VQ     -0.218500
     15 N1         -2.8960   -0.2210    0.3230 n3        1 2VQ     -1.026700
     16 H1          0.2430    0.1530    1.0310 hn        1 2VQ      0.455050
     17 H2         -0.5610    1.5880    0.9050 hn        1 2VQ      0.455050
     18 H3         -0.8440    2.6410   -3.0040 ha        1 2VQ      0.148500
     19 H4         -0.2530    4.4060   -3.1750 ha        1 2VQ      0.148500
     20 H5         -2.4180    5.2700   -2.2920 h4        1 2VQ      0.152000
     21 H6         -4.6940    4.5700   -0.8890 h2        1 2VQ      0.140700
     22 H7         -2.4500    0.8940   -3.6470 hc        1 2VQ      0.097033
     23 H8         -4.0610    1.1360   -4.4690 hc        1 2VQ      0.097033
     24 H9         -2.7840    2.4440   -4.5500 hc        1 2VQ      0.097033
     25 H10        -3.5610    0.5040    0.4550 hn        1 2VQ      0.455050
     26 H11        -3.1950   -1.0850    0.6980 hn        1 2VQ      0.455050
     27 N4         -3.2690    3.6770    0.4410 no        1 2VQ      0.262300
@<TRIPOS>BOND
     1    1    2 2   
     2    1    3 2   
     3    1    4 1   
     4    1   15 1   
     5    4   16 1   
     6    4   17 1   
     7    5    6 2   
     8    5   18 1   
     9    5   19 1   
    10    6   12 1   
    11    6   20 1   
    12    7    9 3   
    13    7   10 1   
    14    8    9 1   
    15    8   12 1   
    16    8   21 1   
    17    8   27 1   
    18   10   11 1   
    19   10   12 2   
    20   11   22 1   
    21   11   23 1   
    22   11   24 1   
    23   13   27 1   
    24   14   27 1   
    25   15   25 1   
    26   15   26 1   
@<TRIPOS>SUBSTRUCTURE
     1 2VQ         1 TEMP              0 ****  ****    0 ROOT
