@<TRIPOS>MOLECULE
2VR
   46    48     1     0     0
SMALL
bcc


@<TRIPOS>ATOM
      1 C2'        -0.1800    0.1630    0.4430 c3        1 2VR     -0.088000
      2 C1'         1.2430   -0.0120   -0.0560 c3        1 2VR     -0.151000
      3 C18         2.1770   -0.4110    1.0630 c3        1 2VR     -0.107000
      4 C5          1.5890   -1.3710    2.0380 ca        1 2VR     -0.089000
      5 C4          2.4580   -1.9470    2.9670 ca        1 2VR     -0.138000
      6 C3          1.9770   -2.7910    3.9630 ca        1 2VR     -0.167000
      7 C2          0.6100   -3.0270    4.0510 ca        1 2VR     -0.133000
      8 C1         -0.2830   -2.4590    3.1330 ca        1 2VR     -0.088000
      9 C8'        -1.7290   -2.6940    3.3630 c3        1 2VR     -0.175000
     10 C6          0.2030   -1.6630    2.0700 ca        1 2VR      0.051000
     11 C7         -0.6630   -1.1150    1.0360 c2        1 2VR     -0.243000
     12 C8         -1.7500   -1.7940    0.5720 c2        1 2VR      0.029000
     13 C9         -2.7970   -1.3690   -0.2920 c2        1 2VR     -0.325000
     14 C19        -3.1800    0.0610   -0.3730 c3        1 2VR     -0.122000
     15 C10        -3.5520   -2.2760   -1.0180 c2        1 2VR      0.038000
     16 C11        -3.3740   -3.6530   -1.1140 c2        1 2VR     -0.390000
     17 C12        -4.2300   -4.4600   -1.8720 c2        1 2VR      0.045000
     18 C13        -4.1380   -5.8240   -2.0140 c2        1 2VR     -0.359000
     19 C20        -3.0630   -6.6020   -1.3670 c3        1 2VR     -0.120000
     20 C14        -5.1270   -6.5180   -2.8110 cx        1 2VR      0.105000
     21 C15        -5.4550   -7.9340   -2.6480 cu        1 2VR      0.251000
     22 O1         -4.6660   -7.6350   -3.7220 os        1 2VR     -0.326000
     23 O2         -5.8940   -9.0000   -2.2630 o         1 2VR     -0.303000
     24 H1         -0.8190    0.4720   -0.4230 hc        1 2VR      0.072500
     25 H2         -0.2160    0.9850    1.2070 hc        1 2VR      0.072500
     26 H3          1.2540   -0.7990   -0.8550 hc        1 2VR      0.070500
     27 H4          1.6030    0.9430   -0.5190 hc        1 2VR      0.070500
     28 H5          2.4830    0.5110    1.6330 hc        1 2VR      0.068500
     29 H6          3.1140   -0.8490    0.6250 hc        1 2VR      0.068500
     30 H7          3.5350   -1.7280    2.9090 ha        1 2VR      0.110000
     31 H8          2.6680   -3.2560    4.6790 ha        1 2VR      0.111000
     32 H9          0.2170   -3.6640    4.8570 ha        1 2VR      0.113000
     33 H10        -2.3450   -1.8530    2.9550 hc        1 2VR      0.080667
     34 H11        -1.9410   -2.7850    4.4580 hc        1 2VR      0.080667
     35 H12        -2.0580   -3.6440    2.8710 hc        1 2VR      0.080667
     36 H13        -1.8510   -2.8510    0.9010 ha        1 2VR      0.108000
     37 H14        -2.7980    0.6310    0.5100 hc        1 2VR      0.045667
     38 H15        -4.2950    0.1700   -0.3960 hc        1 2VR      0.045667
     39 H16        -2.7800    0.5420   -1.3030 hc        1 2VR      0.045667
     40 H17        -4.3930   -1.8480   -1.6020 ha        1 2VR      0.078000
     41 H18        -2.5370   -4.1320   -0.5890 ha        1 2VR      0.120000
     42 H19        -5.0580   -3.9460   -2.4010 ha        1 2VR      0.076000
     43 H20        -3.1110   -6.4940   -0.2530 hc        1 2VR      0.057000
     44 H21        -2.0580   -6.2360   -1.7000 hc        1 2VR      0.057000
     45 H22        -3.1390   -7.6890   -1.6200 hc        1 2VR      0.057000
     46 H23        -5.8800   -5.8790   -3.3200 h1        1 2VR      0.117000
@<TRIPOS>BOND
     1    1    2 1   
     2    1   11 1   
     3    1   24 1   
     4    1   25 1   
     5    2    3 1   
     6    2   26 1   
     7    2   27 1   
     8    3    4 1   
     9    3   28 1   
    10    3   29 1   
    11    4    5 1   
    12    4   10 1   
    13    5    6 1   
    14    5   30 1   
    15    6    7 1   
    16    6   31 1   
    17    7    8 1   
    18    7   32 1   
    19    8    9 1   
    20    8   10 1   
    21    9   33 1   
    22    9   34 1   
    23    9   35 1   
    24   10   11 1   
    25   11   12 1   
    26   12   13 1   
    27   12   36 1   
    28   13   14 1   
    29   13   15 1   
    30   14   37 1   
    31   14   38 1   
    32   14   39 1   
    33   15   16 1   
    34   15   40 1   
    35   16   17 1   
    36   16   41 1   
    37   17   18 1   
    38   17   42 1   
    39   18   19 1   
    40   18   20 1   
    41   19   43 1   
    42   19   44 1   
    43   19   45 1   
    44   20   21 1   
    45   20   22 1   
    46   20   46 1   
    47   21   22 1   
    48   21   23 1   
@<TRIPOS>SUBSTRUCTURE
     1 2VR         1 TEMP              0 ****  ****    0 ROOT
