@<TRIPOS>MOLECULE
2VR
   46    47     1     0     0
SMALL
bcc


@<TRIPOS>ATOM
      1 C2'        -0.5440   -0.1200    0.3780 c3        1 2VR     -0.033200
      2 C1'         0.7150   -0.4750   -0.3890 c3        1 2VR     -0.073400
      3 C18         1.8540   -0.8340    0.5390 c3        1 2VR     -0.031100
      4 C5          1.4500   -1.5460    1.7850 ca        1 2VR     -0.065300
      5 C4          2.4750   -2.0130    2.6150 ca        1 2VR     -0.144000
      6 C3          2.1780   -2.6150    3.8340 ca        1 2VR     -0.136000
      7 C2          0.8530   -2.7250    4.2410 ca        1 2VR     -0.141000
      8 C1         -0.1900   -2.2700    3.4240 ca        1 2VR     -0.067300
      9 C8'        -1.5710   -2.3710    3.9570 c3        1 2VR     -0.056800
     10 C6          0.1000   -1.7140    2.1620 ca        1 2VR     -0.017800
     11 C7         -0.9410   -1.2850    1.2240 ce        1 2VR     -0.103400
     12 C8         -2.1000   -1.9500    1.0590 cf        1 2VR     -0.061000
     13 C9         -3.1960   -1.5750    0.1800 cf        1 2VR     -0.179200
     14 C19        -3.7610   -0.2080    0.3280 c3        1 2VR     -0.038900
     15 C10        -3.7440   -2.4410   -0.7030 ce        1 2VR     -0.046000
     16 C11        -3.3040   -3.7920   -0.9290 ce        1 2VR     -0.249000
     17 C12        -3.9170   -4.6030   -1.8190 cf        1 2VR     -0.019000
     18 C13        -3.5290   -5.9710   -2.0980 cf        1 2VR     -0.164200
     19 C20        -2.3200   -6.4950   -1.4090 c3        1 2VR     -0.045900
     20 C14        -4.2290   -6.7480   -2.9480 ce        1 2VR     -0.134200
     21 C15        -5.5030   -6.4000   -3.6860 c         1 2VR      0.889800
     22 O1         -6.3080   -7.3540   -3.8880 o         1 2VR     -0.829300
     23 O2         -5.7070   -5.2150   -4.0770 o         1 2VR     -0.829300
     24 H1         -0.3600    0.7760    1.0270 hc        1 2VR      0.047200
     25 H2         -1.3580    0.1430   -0.3470 hc        1 2VR      0.047200
     26 H3          1.0190    0.3890   -1.0350 hc        1 2VR      0.044200
     27 H4          0.4950   -1.3410   -1.0690 hc        1 2VR      0.044200
     28 H5          2.6000   -1.4630   -0.0190 hc        1 2VR      0.041200
     29 H6          2.3870    0.1080    0.8480 hc        1 2VR      0.041200
     30 H7          3.5220   -1.8990    2.2990 ha        1 2VR      0.122000
     31 H8          2.9870   -2.9920    4.4760 ha        1 2VR      0.121000
     32 H9          0.6160   -3.1730    5.2170 ha        1 2VR      0.123000
     33 H10        -2.0150   -3.3660    3.7030 hc        1 2VR      0.045367
     34 H11        -2.2280   -1.5710    3.5340 hc        1 2VR      0.045367
     35 H12        -1.5690   -2.2690    5.0710 hc        1 2VR      0.045367
     36 H13        -2.2730   -2.8930    1.6130 ha        1 2VR      0.126000
     37 H14        -4.8250   -0.2660    0.6710 hc        1 2VR      0.029700
     38 H15        -3.1840    0.3910    1.0740 hc        1 2VR      0.029700
     39 H16        -3.7440    0.3340   -0.6500 hc        1 2VR      0.029700
     40 H17        -4.6000   -2.1030   -1.3180 ha        1 2VR      0.123000
     41 H18        -2.4380   -4.1370   -0.3420 ha        1 2VR      0.113000
     42 H19        -4.7830   -4.2400   -2.4170 ha        1 2VR      0.183000
     43 H20        -2.0890   -7.5400   -1.7310 hc        1 2VR      0.022700
     44 H21        -2.4720   -6.4970   -0.3010 hc        1 2VR      0.022700
     45 H22        -1.4320   -5.8540   -1.6370 hc        1 2VR      0.022700
     46 H23        -3.8970   -7.7850   -3.1350 ha        1 2VR      0.103000
@<TRIPOS>BOND
     1    1    2 1   
     2    1   11 1   
     3    1   24 1   
     4    1   25 1   
     5    2    3 1   
     6    2   26 1   
     7    2   27 1   
     8    3    4 1   
     9    3   28 1   
    10    3   29 1   
    11    4    5 ar  
    12    4   10 ar  
    13    5    6 ar  
    14    5   30 1   
    15    6    7 ar  
    16    6   31 1   
    17    7    8 ar  
    18    7   32 1   
    19    8    9 1   
    20    8   10 ar  
    21    9   33 1   
    22    9   34 1   
    23    9   35 1   
    24   10   11 1   
    25   11   12 2   
    26   12   13 1   
    27   12   36 1   
    28   13   14 1   
    29   13   15 2   
    30   14   37 1   
    31   14   38 1   
    32   14   39 1   
    33   15   16 1   
    34   15   40 1   
    35   16   17 2   
    36   16   41 1   
    37   17   18 1   
    38   17   42 1   
    39   18   19 1   
    40   18   20 2   
    41   19   43 1   
    42   19   44 1   
    43   19   45 1   
    44   20   21 1   
    45   20   46 1   
    46   21   22 1   
    47   21   23 1   
@<TRIPOS>SUBSTRUCTURE
     1 2VR         1 TEMP              0 ****  ****    0 ROOT
