@<TRIPOS>MOLECULE
2VS
   15    14     1     0     0
SMALL
bcc


@<TRIPOS>ATOM
      1 CA6         0.0900   -0.1110   -0.0900 c         1 2VS      0.577100
      2 OA4         1.3180    0.0100   -0.2200 o         1 2VS     -0.600100
      3 CA5        -0.6320    0.1350    1.1410 ce        1 2VS     -0.380200
      4 CA4        -1.9750   -0.0130    1.2260 cf        1 2VS      0.038000
      5 CA3        -2.7380    0.2160    2.4090 cf        1 2VS     -0.297000
      6 CA2        -4.0870    0.0660    2.4900 ce        1 2VS      0.089900
      7 OA3        -4.7950   -0.3270    1.3910 oh        1 2VS     -0.536100
      8 CA1        -4.9230    0.3070    3.7530 c         1 2VS      0.887800
      9 OA2        -6.1640    0.1060    3.5990 o         1 2VS     -0.802300
     10 OA1        -4.3530    0.6690    4.8080 o         1 2VS     -0.802300
     11 H1         -0.5300   -0.4310   -0.9630 h4        1 2VS     -0.037800
     12 H4         -0.0360    0.4510    2.0100 ha        1 2VS      0.139000
     13 H5         -2.5500   -0.3320    0.3330 ha        1 2VS      0.113000
     14 H6         -2.2160    0.5340    3.3270 ha        1 2VS      0.157000
     15 H7         -5.7370   -0.3730    1.6580 ho        1 2VS      0.455000
@<TRIPOS>BOND
     1    1    2 2   
     2    1    3 1   
     3    1   11 1   
     4    3    4 2   
     5    3   12 1   
     6    4    5 1   
     7    4   13 1   
     8    5    6 2   
     9    5   14 1   
    10    6    7 1   
    11    6    8 1   
    12    7   15 1   
    13    8    9 1   
    14    8   10 1   
@<TRIPOS>SUBSTRUCTURE
     1 2VS         1 TEMP              0 ****  ****    0 ROOT
