@<TRIPOS>MOLECULE
2VT
   41    44     1     0     0
SMALL
bcc


@<TRIPOS>ATOM
      1 C1          0.7000    2.5480    2.2740 ca        1 2VT     -0.051000
      2 C2         -0.2090    2.2880    1.2140 ca        1 2VT     -0.131000
      3 C3         -1.2600    1.4130    1.3540 ca        1 2VT     -0.043000
      4 C4         -1.4210    0.7660    2.6060 ca        1 2VT     -0.124000
      5 C5         -0.4810    1.0380    3.6910 ca        1 2VT      0.021000
      6 C6          0.5790    1.9360    3.5050 ca        1 2VT     -0.133000
      7 C7         -0.9430    0.2140    4.7710 cc        1 2VT     -0.303300
      8 N8         -2.0810   -0.4630    4.2670 na        1 2VT      0.090800
      9 N9         -2.3740   -0.1460    3.0380 nc        1 2VT     -0.135400
     10 C11        -0.3520    0.1080    6.0580 c         1 2VT      0.605300
     11 O12         0.5230    0.7940    6.5750 o         1 2VT     -0.451100
     12 N13        -0.8090   -1.0530    6.9550 n4        1 2VT     -0.498200
     13 C14        -2.2030   -1.0320    7.2610 cc        1 2VT     -0.305700
     14 C15        -3.1710   -2.0840    6.9930 cc        1 2VT      0.313200
     15 N16        -4.3770   -1.7100    7.4790 nd        1 2VT     -0.445800
     16 N17        -4.2300   -0.5020    8.0520 na        1 2VT      0.137400
     17 C18        -2.9340   -0.0260    7.9500 cd        1 2VT     -0.057300
     18 C19        -5.3460    0.2560    8.6370 c3        1 2VT      0.097600
     19 C20        -6.2250    0.8950    7.6100 ca        1 2VT     -0.155300
     20 C21        -7.2600    0.1600    7.0200 ca        1 2VT     -0.074000
     21 C22        -8.1050    0.7670    6.0930 ca        1 2VT     -0.129000
     22 C23        -7.9210    2.1050    5.7420 ca        1 2VT     -0.061000
     23 C24        -6.8810    2.8400    6.3280 ca        1 2VT     -0.007000
     24 C25        -6.0330    2.2350    7.2650 ca        1 2VT     -0.076000
     25 C26        -6.6780    4.2010    5.9720 cg        1 2VT      0.211800
     26 N27        -6.5090    5.3140    5.6780 n1        1 2VT     -0.321800
     27 H1          1.5210    3.2640    2.0960 ha        1 2VT      0.161000
     28 H2         -0.0550    2.8100    0.2540 ha        1 2VT      0.163000
     29 H3         -1.9650    1.2090    0.5330 ha        1 2VT      0.170000
     30 H4          1.2810    2.1410    4.3270 ha        1 2VT      0.165000
     31 H5         -2.7010   -1.0440    4.7980 hn        1 2VT      0.342700
     32 H6         -0.2680   -1.0060    7.8340 hn        1 2VT      0.462300
     33 H7         -3.0130   -3.0510    6.5080 h4        1 2VT      0.073100
     34 H8         -2.6140    0.9400    8.3520 h4        1 2VT      0.214000
     35 H9         -5.9520   -0.4600    9.2680 h1        1 2VT      0.097200
     36 H10        -4.8880    1.0370    9.3090 h1        1 2VT      0.097200
     37 H11        -7.4090   -0.8970    7.2930 ha        1 2VT      0.153000
     38 H12        -8.9250    0.1900    5.6360 ha        1 2VT      0.159000
     39 H13        -8.5920    2.5840    5.0110 ha        1 2VT      0.163000
     40 H14        -5.2290    2.8240    7.7330 ha        1 2VT      0.143000
     41 H132       -0.5890   -1.9400    6.4860 hn        1 2VT      0.462300
@<TRIPOS>BOND
     1    1    2 ar  
     2    1    6 ar  
     3    1   27 1   
     4    2    3 ar  
     5    2   28 1   
     6    3    4 ar  
     7    3   29 1   
     8    4    5 ar  
     9    4    9 2   
    10    5    6 ar  
    11    5    7 2   
    12    6   30 1   
    13    7    8 1   
    14    7   10 1   
    15    8    9 1   
    16    8   31 1   
    17   10   11 2   
    18   10   12 1   
    19   12   13 1   
    20   12   32 1   
    21   12   41 1   
    22   13   14 1   
    23   13   17 2   
    24   14   15 2   
    25   14   33 1   
    26   15   16 1   
    27   16   17 1   
    28   16   18 1   
    29   17   34 1   
    30   18   19 1   
    31   18   35 1   
    32   18   36 1   
    33   19   20 ar  
    34   19   24 ar  
    35   20   21 ar  
    36   20   37 1   
    37   21   22 ar  
    38   21   38 1   
    39   22   23 ar  
    40   22   39 1   
    41   23   24 ar  
    42   23   25 1   
    43   24   40 1   
    44   25   26 3   
@<TRIPOS>SUBSTRUCTURE
     1 2VT         1 TEMP              0 ****  ****    0 ROOT
