@<TRIPOS>MOLECULE
2VT
   40    43     1     0     0
SMALL
bcc


@<TRIPOS>ATOM
      1 C1          0.0000    0.0000    0.0000 ca        1 2VT     -0.100000
      2 C2          1.3940    0.0000    0.0000 ca        1 2VT     -0.113000
      3 C3          2.1110    0.0000    1.1550 ca        1 2VT     -0.074000
      4 C4          1.4350    0.0010    2.3910 ca        1 2VT     -0.071000
      5 C5         -0.0360    0.0010    2.3850 ca        1 2VT     -0.068000
      6 C6         -0.7130    0.0060    1.1590 ca        1 2VT     -0.034000
      7 C7         -0.3900    0.0020    3.7400 cc        1 2VT     -0.419300
      8 N8          0.7770    0.0010    4.4410 na        1 2VT      0.646800
      9 N9          1.7990    0.0000    3.6620 nc        1 2VT     -0.424400
     10 C11        -1.7460    0.0030    4.2930 c         1 2VT      0.640300
     11 O12        -2.7080    0.0040    3.5460 o         1 2VT     -0.623100
     12 N13        -1.9300    0.0030    5.6280 ns        1 2VT     -0.001100
     13 C14        -3.2330    0.0040    6.1590 cc        1 2VT     -0.343700
     14 C15        -4.4250    0.0030    5.4210 cc        1 2VT      0.384200
     15 N16        -5.4280    0.0040    6.2610 nd        1 2VT     -0.623800
     16 N17        -4.9150    0.0050    7.5640 na        1 2VT      0.520400
     17 C18        -3.5590   -0.0020    7.4760 cd        1 2VT     -0.286300
     18 C19        -5.7000    0.0020    8.8010 c3        1 2VT      0.017600
     19 C20        -6.6510    1.1700    8.7940 ca        1 2VT     -0.169300
     20 C21        -7.9210    1.0240    8.2610 ca        1 2VT     -0.038000
     21 C22        -8.8010    2.0910    8.2510 ca        1 2VT     -0.082000
     22 C23        -8.4180    3.3100    8.7740 ca        1 2VT     -0.064000
     23 C24        -7.1390    3.4640    9.3130 ca        1 2VT      0.036000
     24 C25        -6.2580    2.3810    9.3240 ca        1 2VT     -0.065000
     25 C26        -6.7360    4.7260    9.8570 cg        1 2VT      0.227800
     26 N27        -6.4350    5.7340   10.2850 n1        1 2VT     -0.375800
     27 H1         -0.4380   -0.2640   -0.9550 ha        1 2VT      0.102000
     28 H2          2.0340   -0.3070   -0.8190 ha        1 2VT      0.107000
     29 H3          3.1150    0.3890    1.0360 ha        1 2VT      0.113000
     30 H4         -1.7450   -0.3210    1.1200 ha        1 2VT      0.124000
     31 H5          1.0440   -0.0070    5.4060 hn        1 2VT      0.136700
     32 H6         -1.3090   -0.3030    6.3510 hn        1 2VT      0.154500
     33 H7         -4.3550    0.2800    4.3760 h4        1 2VT      0.068100
     34 H8         -2.9010   -0.0350    8.3360 h4        1 2VT      0.143000
     35 H9         -5.1120   -0.0060    9.7110 h1        1 2VT      0.049700
     36 H10        -6.5680   -0.6180    8.9890 h1        1 2VT      0.049700
     37 H11        -8.1990   -0.0130    8.4000 ha        1 2VT      0.112000
     38 H12        -9.8270    1.9510    7.9340 ha        1 2VT      0.112000
     39 H13        -9.0510    4.1870    8.7150 ha        1 2VT      0.116000
     40 H14        -5.2040    2.4280    9.5710 ha        1 2VT      0.114000
@<TRIPOS>BOND
     1    1    2 ar  
     2    1    6 ar  
     3    1   27 1   
     4    2    3 ar  
     5    2   28 1   
     6    3    4 ar  
     7    3   29 1   
     8    4    5 ar  
     9    4    9 2   
    10    5    6 ar  
    11    5    7 2   
    12    6   30 1   
    13    7    8 1   
    14    7   10 1   
    15    8    9 1   
    16    8   31 1   
    17   10   11 2   
    18   10   12 1   
    19   12   13 1   
    20   12   32 1   
    21   13   14 1   
    22   13   17 2   
    23   14   15 2   
    24   14   33 1   
    25   15   16 1   
    26   16   17 1   
    27   16   18 1   
    28   17   34 1   
    29   18   19 1   
    30   18   35 1   
    31   18   36 1   
    32   19   20 ar  
    33   19   24 ar  
    34   20   21 ar  
    35   20   37 1   
    36   21   22 ar  
    37   21   38 1   
    38   22   23 ar  
    39   22   39 1   
    40   23   24 ar  
    41   23   25 1   
    42   24   40 1   
    43   25   26 3   
@<TRIPOS>SUBSTRUCTURE
     1 2VT         1 TEMP              0 ****  ****    0 ROOT
