@<TRIPOS>MOLECULE
2VU
   47    51     1     0     0
SMALL
bcc


@<TRIPOS>ATOM
      1 C1         -0.2350    0.5700    0.5790 ca        1 2VU     -0.137000
      2 C2          1.1360    0.5620    0.3220 ca        1 2VU     -0.077000
      3 C3          2.0240    0.0380    1.2680 ca        1 2VU     -0.124300
      4 C4          1.5370   -0.4760    2.4710 ca        1 2VU     -0.080000
      5 C5          0.1580   -0.4710    2.7250 ca        1 2VU     -0.023000
      6 C6         -0.7300    0.0550    1.7760 ca        1 2VU     -0.081000
      7 C7         -0.3370   -0.9990    3.9480 cg        1 2VU      0.232800
      8 N8         -0.7430   -1.4310    4.9490 n1        1 2VU     -0.361800
      9 C9          3.4980   -0.0040    0.9800 c3        1 2VU      0.107600
     10 N10         4.1270    1.2980    0.8590 na        1 2VU      0.084400
     11 C11         4.6800    1.9970    1.9440 cc        1 2VU     -0.197300
     12 C12         5.0400    3.2710    1.4500 cd        1 2VU     -0.111700
     13 C13         4.6330    3.2490    0.0480 cd        1 2VU      0.310200
     14 N14         4.0740    2.0550   -0.2500 nc        1 2VU     -0.508800
     15 N15         5.6550    4.2910    2.1580 n         1 2VU     -0.430100
     16 C16         5.9920    5.5210    1.6160 c         1 2VU      0.631800
     17 O17         5.7670    5.8090    0.4240 o         1 2VU     -0.595100
     18 C18         6.6440    6.5030    2.5160 cc        1 2VU      0.287900
     19 C19         7.0790    7.8270    2.0900 ca        1 2VU     -0.174900
     20 C20         7.0620    8.5590    0.9030 ca        1 2VU     -0.047000
     21 C21         7.5950    9.8370    0.9100 ca        1 2VU     -0.155000
     22 C22         8.1510   10.4160    2.0810 ca        1 2VU      0.049000
     23 C23         8.1810    9.7050    3.2830 ca        1 2VU     -0.141000
     24 C24         7.6450    8.4120    3.2820 ca        1 2VU     -0.054200
     25 N25         7.5160    7.4340    4.2860 na        1 2VU     -0.005100
     26 N27         6.9290    6.3300    3.8360 nd        1 2VU     -0.493100
     27 C28         8.6870   11.7490    2.0260 cc        1 2VU     -0.218300
     28 C29         8.4760   12.7350    1.0390 cd        1 2VU     -0.122300
     29 N30         9.2070   13.8510    1.4390 na        1 2VU     -0.017600
     30 N32         9.8590   13.6520    2.5870 nd        1 2VU     -0.512800
     31 C33         9.5730   12.3880    2.9850 cc        1 2VU      0.311200
     32 H1         -0.9300    0.9860   -0.1660 ha        1 2VU      0.145000
     33 H2          1.5220    0.9720   -0.6260 ha        1 2VU      0.160000
     34 H3          2.2290   -0.8860    3.2230 ha        1 2VU      0.142000
     35 H4         -1.8120    0.0610    1.9780 ha        1 2VU      0.147000
     36 H5          3.6580   -0.5680    0.0150 h1        1 2VU      0.075200
     37 H6          4.0350   -0.5510    1.8070 h1        1 2VU      0.075200
     38 H7          4.7890    1.5530    2.9300 h4        1 2VU      0.177000
     39 H8          4.7540    4.0560   -0.6800 h4        1 2VU      0.075100
     40 H9          5.8500    4.1040    3.1150 hn        1 2VU      0.333500
     41 H10         6.6310    8.1100   -0.0070 ha        1 2VU      0.169000
     42 H11         7.5960   10.4270   -0.0190 ha        1 2VU      0.134000
     43 H12         8.6050   10.1460    4.1940 ha        1 2VU      0.142000
     44 H13         7.7790    7.5130    5.2400 hn        1 2VU      0.330700
     45 H14         7.8790   12.7210    0.1280 h4        1 2VU      0.181000
     46 H15         9.2760   14.7230    0.9680 hn        1 2VU      0.324700
     47 H16         9.9850   11.9580    3.8980 h4        1 2VU      0.044100
@<TRIPOS>BOND
     1    1    2 ar  
     2    1    6 ar  
     3    1   32 1   
     4    2    3 ar  
     5    2   33 1   
     6    3    4 ar  
     7    3    9 1   
     8    4    5 ar  
     9    4   34 1   
    10    5    6 ar  
    11    5    7 1   
    12    6   35 1   
    13    7    8 3   
    14    9   10 1   
    15    9   36 1   
    16    9   37 1   
    17   10   11 1   
    18   10   14 1   
    19   11   12 2   
    20   11   38 1   
    21   12   13 1   
    22   12   15 1   
    23   13   14 2   
    24   13   39 1   
    25   15   16 1   
    26   15   40 1   
    27   16   17 2   
    28   16   18 1   
    29   18   19 1   
    30   18   26 2   
    31   19   20 ar  
    32   19   24 ar  
    33   20   21 ar  
    34   20   41 1   
    35   21   22 ar  
    36   21   42 1   
    37   22   23 ar  
    38   22   27 1   
    39   23   24 ar  
    40   23   43 1   
    41   24   25 1   
    42   25   26 1   
    43   25   44 1   
    44   27   28 2   
    45   27   31 1   
    46   28   29 1   
    47   28   45 1   
    48   29   30 1   
    49   29   46 1   
    50   30   31 2   
    51   31   47 1   
@<TRIPOS>SUBSTRUCTURE
     1 2VU         1 TEMP              0 ****  ****    0 ROOT
