@<TRIPOS>MOLECULE
2VU
   47    51     1     0     0
SMALL
bcc


@<TRIPOS>ATOM
      1 C1         -0.1940    0.6100    0.4820 ca        1 2VU     -0.137000
      2 C2          1.1800    0.6110    0.2460 ca        1 2VU     -0.077000
      3 C3          2.0570    0.0940    1.2060 ca        1 2VU     -0.124300
      4 C4          1.5540   -0.4220    2.4030 ca        1 2VU     -0.080000
      5 C5          0.1720   -0.4270    2.6340 ca        1 2VU     -0.023000
      6 C6         -0.7050    0.0930    1.6720 ca        1 2VU     -0.081000
      7 C7         -0.3400   -0.9570    3.8500 cg        1 2VU      0.232800
      8 N8         -0.7580   -1.3910    4.8450 n1        1 2VU     -0.361800
      9 C9          3.5350    0.0610    0.9420 c3        1 2VU      0.107600
     10 N10         4.1580    1.3670    0.8310 na        1 2VU      0.084400
     11 C11         4.6890    2.0700    1.9240 cc        1 2VU     -0.197300
     12 C12         5.0480    3.3460    1.4360 cd        1 2VU     -0.111700
     13 C13         4.6640    3.3210    0.0270 cd        1 2VU      0.310200
     14 N14         4.1170    2.1230   -0.2790 nc        1 2VU     -0.508800
     15 N15         5.6450    4.3700    2.1530 ns        1 2VU     -0.430100
     16 C16         5.9830    5.6020    1.6160 c         1 2VU      0.631800
     17 O17         5.7740    5.8890    0.4210 o         1 2VU     -0.595100
     18 C18         6.6140    6.5880    2.5270 cc        1 2VU      0.287900
     19 C19         7.0440    7.9170    2.1080 ca        1 2VU     -0.174900
     20 C20         7.0380    8.6490    0.9210 ca        1 2VU     -0.047000
     21 C21         7.5600    9.9310    0.9370 ca        1 2VU     -0.155000
     22 C22         8.0950   10.5140    2.1160 ca        1 2VU      0.049000
     23 C23         8.1130    9.8020    3.3180 ca        1 2VU     -0.141000
     24 C24         7.5880    8.5050    3.3080 ca        1 2VU     -0.054200
     25 N25         7.4520    7.5250    4.3100 na        1 2VU     -0.005100
     26 N27         6.8810    6.4170    3.8500 nd        1 2VU     -0.493100
     27 C28         8.6210   11.8520    2.0700 cc        1 2VU     -0.218300
     28 C29         8.4160   12.8370    1.0810 cd        1 2VU     -0.122300
     29 N30         9.1320   13.9580    1.4920 na        1 2VU     -0.017600
     30 N32         9.7700   13.7630    2.6490 nd        1 2VU     -0.512800
     31 C33         9.4880   12.4960    3.0420 cc        1 2VU      0.311200
     32 H1         -0.8800    1.0210   -0.2740 ha        1 2VU      0.145000
     33 H2          1.5780    1.0220   -0.6950 ha        1 2VU      0.160000
     34 H3          2.2370   -0.8280    3.1650 ha        1 2VU      0.142000
     35 H4         -1.7900    0.0920    1.8570 ha        1 2VU      0.147000
     36 H5          3.7140   -0.5020   -0.0210 h1        1 2VU      0.075200
     37 H6          4.0630   -0.4820    1.7780 h1        1 2VU      0.075200
     38 H7          4.7850    1.6260    2.9120 h4        1 2VU      0.177000
     39 H8          4.7910    4.1290   -0.6980 h4        1 2VU      0.075100
     40 H9          5.8270    4.1840    3.1130 hn        1 2VU      0.333500
     41 H10         6.6240    8.1980    0.0050 ha        1 2VU      0.169000
     42 H11         7.5700   10.5220    0.0090 ha        1 2VU      0.134000
     43 H12         8.5210   10.2460    4.2350 ha        1 2VU      0.142000
     44 H13         7.7010    7.6060    5.2670 hn        1 2VU      0.330700
     45 H14         7.8330   12.8190    0.1610 h4        1 2VU      0.181000
     46 H15         9.2010   14.8300    1.0220 hn        1 2VU      0.324700
     47 H16         9.8900   12.0690    3.9600 h4        1 2VU      0.044100
@<TRIPOS>BOND
     1    1    2 ar  
     2    1    6 ar  
     3    1   32 1   
     4    2    3 ar  
     5    2   33 1   
     6    3    4 ar  
     7    3    9 1   
     8    4    5 ar  
     9    4   34 1   
    10    5    6 ar  
    11    5    7 1   
    12    6   35 1   
    13    7    8 3   
    14    9   10 1   
    15    9   36 1   
    16    9   37 1   
    17   10   11 1   
    18   10   14 1   
    19   11   12 2   
    20   11   38 1   
    21   12   13 1   
    22   12   15 1   
    23   13   14 2   
    24   13   39 1   
    25   15   16 1   
    26   15   40 1   
    27   16   17 2   
    28   16   18 1   
    29   18   19 1   
    30   18   26 2   
    31   19   20 ar  
    32   19   24 ar  
    33   20   21 ar  
    34   20   41 1   
    35   21   22 ar  
    36   21   42 1   
    37   22   23 ar  
    38   22   27 1   
    39   23   24 ar  
    40   23   43 1   
    41   24   25 1   
    42   25   26 1   
    43   25   44 1   
    44   27   28 2   
    45   27   31 1   
    46   28   29 1   
    47   28   45 1   
    48   29   30 1   
    49   29   46 1   
    50   30   31 2   
    51   31   47 1   
@<TRIPOS>SUBSTRUCTURE
     1 2VU         1 TEMP              0 ****  ****    0 ROOT
