@<TRIPOS>MOLECULE
2VU
   48    52     1     0     0
SMALL
bcc


@<TRIPOS>ATOM
      1 C1          0.6270    0.6480   -0.5080 ca        1 2VU     -0.131000
      2 C2          1.7280    0.2080    0.2250 ca        1 2VU     -0.073000
      3 C3          2.0070    0.7730    1.4750 ca        1 2VU     -0.149300
      4 C4          1.1880    1.7830    1.9860 ca        1 2VU     -0.075000
      5 C5          0.0850    2.2250    1.2430 ca        1 2VU     -0.010000
      6 C6         -0.1970    1.6540   -0.0060 ca        1 2VU     -0.064000
      7 C7         -0.7420    3.2590    1.7600 cg        1 2VU      0.216800
      8 N8         -1.4150    4.1080    2.1830 n1        1 2VU     -0.330800
      9 C9          3.1660    0.2740    2.2790 c3        1 2VU      0.099600
     10 N10         4.4450    0.8770    1.8880 na        1 2VU      0.127400
     11 C11         5.0210    1.9630    2.5270 cc        1 2VU     -0.042300
     12 C12         6.1920    2.2730    1.7850 cd        1 2VU     -0.296700
     13 C13         6.2150    1.3090    0.6940 cd        1 2VU      0.342200
     14 N14         5.1410    0.4970    0.7980 nc        1 2VU     -0.457800
     15 N15         7.1610    3.2930    2.0260 n4        1 2VU     -0.481200
     16 C16         6.5810    4.6670    2.3720 c         1 2VU      0.530800
     17 O17         5.4440    4.6940    2.8210 o         1 2VU     -0.432100
     18 C18         7.4770    5.7770    2.1490 cc        1 2VU      0.202900
     19 C19         7.1280    7.1730    2.3560 ca        1 2VU     -0.151900
     20 C20         6.0010    7.8900    2.7640 ca        1 2VU     -0.073000
     21 C21         6.0900    9.2680    2.8300 ca        1 2VU     -0.115000
     22 C22         7.2800    9.9740    2.4970 ca        1 2VU      0.083000
     23 C23         8.4210    9.2790    2.0830 ca        1 2VU     -0.127000
     24 C24         8.3380    7.8840    2.0170 ca        1 2VU     -0.062200
     25 N25         9.2780    6.8940    1.6480 na        1 2VU      0.066900
     26 N27         8.7850    5.6840    1.7230 nd        1 2VU     -0.482100
     27 C28         7.3070   11.4040    2.5870 cc        1 2VU     -0.260300
     28 C29         6.2220   12.2950    2.7590 cd        1 2VU     -0.097300
     29 N30         6.7670   13.5720    2.7820 na        1 2VU     -0.001600
     30 N32         8.0950   13.5660    2.6440 nd        1 2VU     -0.490800
     31 C33         8.4730   12.2720    2.5200 cc        1 2VU      0.323200
     32 H1          0.4060    0.1970   -1.4880 ha        1 2VU      0.156000
     33 H2          2.3790   -0.5850   -0.1770 ha        1 2VU      0.153000
     34 H3          1.3970    2.2280    2.9710 ha        1 2VU      0.143000
     35 H4         -1.0680    1.9990   -0.5870 ha        1 2VU      0.160000
     36 H5          3.0190    0.5100    3.3720 h1        1 2VU      0.092700
     37 H6          3.2610   -0.8450    2.1580 h1        1 2VU      0.092700
     38 H7          4.5960    2.4440    3.4120 h4        1 2VU      0.214000
     39 H8          6.9520    1.2040   -0.1050 h4        1 2VU      0.068100
     40 H9          7.7450    3.3760    1.1830 hn        1 2VU      0.465300
     41 H10         5.0720    7.3600    3.0270 ha        1 2VU      0.162000
     42 H11         5.2110    9.8480    3.1560 ha        1 2VU      0.152000
     43 H12         9.3450    9.8110    1.8180 ha        1 2VU      0.161000
     44 H13        10.2240    7.0430    1.3600 hn        1 2VU      0.354700
     45 H14         5.1510   12.1130    2.8540 h4        1 2VU      0.186000
     46 H15         6.2780   14.4330    2.8870 hn        1 2VU      0.337700
     47 H16         9.5170   11.9830    2.3990 h4        1 2VU      0.048100
     48 H152        7.7640    3.0070    2.8100 hn        1 2VU      0.465300
@<TRIPOS>BOND
     1    1    2 ar  
     2    1    6 ar  
     3    1   32 1   
     4    2    3 ar  
     5    2   33 1   
     6    3    4 ar  
     7    3    9 1   
     8    4    5 ar  
     9    4   34 1   
    10    5    6 ar  
    11    5    7 1   
    12    6   35 1   
    13    7    8 3   
    14    9   10 1   
    15    9   36 1   
    16    9   37 1   
    17   10   11 1   
    18   10   14 1   
    19   11   12 2   
    20   11   38 1   
    21   12   13 1   
    22   12   15 1   
    23   13   14 2   
    24   13   39 1   
    25   15   16 1   
    26   15   40 1   
    27   15   48 1   
    28   16   17 2   
    29   16   18 1   
    30   18   19 1   
    31   18   26 2   
    32   19   20 ar  
    33   19   24 ar  
    34   20   21 ar  
    35   20   41 1   
    36   21   22 ar  
    37   21   42 1   
    38   22   23 ar  
    39   22   27 1   
    40   23   24 ar  
    41   23   43 1   
    42   24   25 1   
    43   25   26 1   
    44   25   44 1   
    45   27   28 2   
    46   27   31 1   
    47   28   29 1   
    48   28   45 1   
    49   29   30 1   
    50   29   46 1   
    51   30   31 2   
    52   31   47 1   
@<TRIPOS>SUBSTRUCTURE
     1 2VU         1 TEMP              0 ****  ****    0 ROOT
