@<TRIPOS>MOLECULE
2VV
   61    65     1     0     0
SMALL
bcc


@<TRIPOS>ATOM
      1 C1         -0.4220   -1.4570   -0.1100 c3        1 2VV      0.081100
      2 N2          1.0080   -1.2240    0.2210 n4        1 2VV     -0.678400
      3 C3          1.3290   -1.7500    1.5730 c3        1 2VV      0.081100
      4 C4          1.8970   -1.8290   -0.8290 c3        1 2VV      0.101800
      5 C5          3.3420   -1.3630   -0.7190 c3        1 2VV     -0.111400
      6 C6          4.0770   -1.6860   -2.0410 c3        1 2VV      0.145300
      7 C8          3.5060   -0.8360   -3.1510 ca        1 2VV     -0.158300
      8 C9          2.7950   -1.4560   -4.1860 ca        1 2VV     -0.121500
      9 C10         2.2640   -0.6940   -5.2240 ca        1 2VV     -0.126000
     10 C11         2.4440    0.6900   -5.2400 ca        1 2VV     -0.107000
     11 C12         3.1580    1.3090   -4.2140 ca        1 2VV     -0.126000
     12 C13         3.6890    0.5500   -3.1710 ca        1 2VV     -0.121500
     13 N14         5.5200   -1.5700   -1.8750 na        1 2VV      0.060400
     14 C15         6.4350   -2.1940   -2.7510 cc        1 2VV     -0.199300
     15 C16         7.6870   -1.5970   -2.5040 cd        1 2VV     -0.079700
     16 C17         7.4130   -0.5770   -1.4820 cd        1 2VV      0.336200
     17 N18         6.1040   -0.5740   -1.1740 nc        1 2VV     -0.535800
     18 N19         8.8970   -1.9260   -3.0820 n         1 2VV     -0.440100
     19 C20        10.1060   -1.3080   -2.7660 c         1 2VV      0.639800
     20 O21        10.1700   -0.3990   -1.9170 o         1 2VV     -0.590100
     21 C22        11.3110   -1.7760   -3.4810 cc        1 2VV      0.275900
     22 C23        12.6420   -1.2160   -3.2850 ca        1 2VV     -0.172900
     23 C24        13.2090   -0.2120   -2.5000 ca        1 2VV     -0.053000
     24 C25        14.5680    0.0210   -2.6110 ca        1 2VV     -0.149000
     25 C26        15.3940   -0.7270   -3.4930 ca        1 2VV      0.058000
     26 C27        14.8520   -1.7380   -4.2890 ca        1 2VV     -0.139000
     27 C28        13.4770   -1.9770   -4.1820 ca        1 2VV     -0.054200
     28 N29        12.6190   -2.8950   -4.8200 na        1 2VV      0.004900
     29 N31        11.3650   -2.7740   -4.4080 nd        1 2VV     -0.492100
     30 C32        16.8000   -0.4370   -3.5640 cc        1 2VV     -0.229300
     31 C33        17.5890    0.3040   -2.6580 cd        1 2VV     -0.117300
     32 N34        18.8840    0.2950   -3.1680 na        1 2VV     -0.013600
     33 N36        18.9770   -0.3830   -4.3150 nd        1 2VV     -0.505800
     34 C37        17.7360   -0.8500   -4.5970 cc        1 2VV      0.314200
     35 H1         -0.6580   -0.9840   -1.1010 hx        1 2VV      0.106200
     36 H2         -1.0670   -1.0000    0.6880 hx        1 2VV      0.106200
     37 H3         -0.6190   -2.5610   -0.1650 hx        1 2VV      0.106200
     38 H5          2.4090   -1.5400    1.8050 hx        1 2VV      0.106200
     39 H6          1.1490   -2.8580    1.5990 hx        1 2VV      0.106200
     40 H7          0.6750   -1.2460    2.3340 hx        1 2VV      0.106200
     41 H8          1.4810   -1.5350   -1.8390 hx        1 2VV      0.107700
     42 H9          1.8370   -2.9500   -0.7260 hx        1 2VV      0.107700
     43 H10         3.4030   -0.2560   -0.5370 hc        1 2VV      0.085700
     44 H11         3.8520   -1.8830    0.1360 hc        1 2VV      0.085700
     45 H12         3.8960   -2.7780   -2.2890 h1        1 2VV      0.068700
     46 H13         2.6720   -2.5500   -4.1970 ha        1 2VV      0.142500
     47 H14         1.7150   -1.1870   -6.0410 ha        1 2VV      0.148500
     48 H15         2.0350    1.2900   -6.0680 ha        1 2VV      0.150000
     49 H16         3.3170    2.3990   -4.2330 ha        1 2VV      0.148500
     50 H17         4.2700    1.0470   -2.3770 ha        1 2VV      0.142500
     51 H18         6.1410   -2.9950   -3.4250 h4        1 2VV      0.182000
     52 H19         8.1490    0.0880   -1.0180 h4        1 2VV      0.086100
     53 H20         8.8790   -2.6480   -3.7660 hn        1 2VV      0.339500
     54 H21        12.5720    0.3700   -1.8150 ha        1 2VV      0.165000
     55 H22        15.0320    0.8140   -2.0040 ha        1 2VV      0.137000
     56 H23        15.4820   -2.3240   -4.9700 ha        1 2VV      0.146000
     57 H24        12.8670   -3.5800   -5.4950 hn        1 2VV      0.334700
     58 H25        17.3290    0.8070   -1.7270 h4        1 2VV      0.182000
     59 H26        19.6870    0.7250   -2.7730 hn        1 2VV      0.327700
     60 H27        17.5260   -1.4370   -5.4910 h4        1 2VV      0.045100
     61 H211        1.1790   -0.2080    0.2260 hn        1 2VV      0.453800
@<TRIPOS>BOND
     1    1    2 1   
     2    1   35 1   
     3    1   36 1   
     4    1   37 1   
     5    2    3 1   
     6    2    4 1   
     7    2   61 1   
     8    3   38 1   
     9    3   39 1   
    10    3   40 1   
    11    4    5 1   
    12    4   41 1   
    13    4   42 1   
    14    5    6 1   
    15    5   43 1   
    16    5   44 1   
    17    6    7 1   
    18    6   13 1   
    19    6   45 1   
    20    7    8 ar  
    21    7   12 ar  
    22    8    9 ar  
    23    8   46 1   
    24    9   10 ar  
    25    9   47 1   
    26   10   11 ar  
    27   10   48 1   
    28   11   12 ar  
    29   11   49 1   
    30   12   50 1   
    31   13   14 1   
    32   13   17 1   
    33   14   15 2   
    34   14   51 1   
    35   15   16 1   
    36   15   18 1   
    37   16   17 2   
    38   16   52 1   
    39   18   19 1   
    40   18   53 1   
    41   19   20 2   
    42   19   21 1   
    43   21   22 1   
    44   21   29 2   
    45   22   23 ar  
    46   22   27 ar  
    47   23   24 ar  
    48   23   54 1   
    49   24   25 ar  
    50   24   55 1   
    51   25   26 ar  
    52   25   30 1   
    53   26   27 ar  
    54   26   56 1   
    55   27   28 1   
    56   28   29 1   
    57   28   57 1   
    58   30   31 2   
    59   30   34 1   
    60   31   32 1   
    61   31   58 1   
    62   32   33 1   
    63   32   59 1   
    64   33   34 2   
    65   34   60 1   
@<TRIPOS>SUBSTRUCTURE
     1 2VV         1 TEMP              0 ****  ****    0 ROOT
