@<TRIPOS>MOLECULE
2VV
   61    65     1     0     0
SMALL
bcc


@<TRIPOS>ATOM
      1 C1         -0.4250   -1.4190   -0.1120 c3        1 2VV      0.081100
      2 N2          1.0040   -1.1820    0.2180 nx        1 2VV     -0.678400
      3 C3          1.3220   -1.6850    1.5800 c3        1 2VV      0.081100
      4 C4          1.8950   -1.8060   -0.8190 c3        1 2VV      0.101800
      5 C5          3.3410   -1.3380   -0.7150 c3        1 2VV     -0.111400
      6 C6          4.0780   -1.6840   -2.0290 c3        1 2VV      0.145300
      7 C8          3.5090   -0.8540   -3.1550 ca        1 2VV     -0.158300
      8 C9          2.8000   -1.4910   -4.1810 ca        1 2VV     -0.121500
      9 C10         2.2710   -0.7470   -5.2340 ca        1 2VV     -0.126000
     10 C11         2.4520    0.6360   -5.2730 ca        1 2VV     -0.107000
     11 C12         3.1630    1.2730   -4.2560 ca        1 2VV     -0.126000
     12 C13         3.6920    0.5320   -3.1990 ca        1 2VV     -0.121500
     13 N14         5.5200   -1.5650   -1.8630 na        1 2VV      0.060400
     14 C15         6.4370   -2.2040   -2.7270 cc        1 2VV     -0.199300
     15 C16         7.6880   -1.6030   -2.4880 cd        1 2VV     -0.079700
     16 C17         7.4130   -0.5650   -1.4850 cd        1 2VV      0.336200
     17 N18         6.1030   -0.5580   -1.1780 nc        1 2VV     -0.535800
     18 N19         8.8990   -1.9410   -3.0590 ns        1 2VV     -0.440100
     19 C20        10.1070   -1.3150   -2.7540 c         1 2VV      0.639800
     20 O21        10.1690   -0.3910   -1.9220 o         1 2VV     -0.590100
     21 C22        11.3130   -1.7950   -3.4600 cc        1 2VV      0.275900
     22 C23        12.6420   -1.2280   -3.2760 ca        1 2VV     -0.172900
     23 C24        13.2070   -0.2060   -2.5120 ca        1 2VV     -0.053000
     24 C25        14.5650    0.0290   -2.6300 ca        1 2VV     -0.149000
     25 C26        15.3930   -0.7340   -3.4970 ca        1 2VV      0.058000
     26 C27        14.8530   -1.7630   -4.2710 ca        1 2VV     -0.139000
     27 C28        13.4790   -2.0040   -4.1580 ca        1 2VV     -0.054200
     28 N29        12.6240   -2.9370   -4.7770 na        1 2VV      0.004900
     29 N31        11.3690   -2.8120   -4.3670 nd        1 2VV     -0.492100
     30 C32        16.7980   -0.4420   -3.5750 cc        1 2VV     -0.229300
     31 C33        17.5850    0.3200   -2.6840 cd        1 2VV     -0.117300
     32 N34        18.8790    0.3040   -3.1960 na        1 2VV     -0.013600
     33 N36        18.9740   -0.3960   -4.3290 nd        1 2VV     -0.505800
     34 C37        17.7340   -0.8710   -4.6010 cc        1 2VV      0.314200
     35 H1         -0.6580   -0.9630   -1.1110 hx        1 2VV      0.106200
     36 H2         -0.6230   -2.5230   -0.1480 hx        1 2VV      0.106200
     37 H3         -1.0710   -0.9480    0.6770 hx        1 2VV      0.106200
     38 H5          2.4010   -1.4710    1.8100 hx        1 2VV      0.106200
     39 H6          1.1410   -2.7920    1.6240 hx        1 2VV      0.106200
     40 H7          0.6670   -1.1670    2.3300 hx        1 2VV      0.106200
     41 H8          1.8340   -2.9240   -0.6970 hx        1 2VV      0.107700
     42 H9          1.4810   -1.5290   -1.8350 hx        1 2VV      0.107700
     43 H10         3.8480   -1.8430    0.1500 hc        1 2VV      0.085700
     44 H11         3.4020   -0.2280   -0.5520 hc        1 2VV      0.085700
     45 H12         3.8970   -2.7800   -2.2590 h1        1 2VV      0.068700
     46 H13         2.6770   -2.5850   -4.1730 ha        1 2VV      0.142500
     47 H14         1.7230   -1.2540   -6.0430 ha        1 2VV      0.148500
     48 H15         2.0450    1.2210   -6.1120 ha        1 2VV      0.150000
     49 H16         3.3230    2.3620   -4.2940 ha        1 2VV      0.148500
     50 H17         4.2710    1.0430   -2.4130 ha        1 2VV      0.142500
     51 H18         6.1440   -3.0170   -3.3880 h4        1 2VV      0.182000
     52 H19         8.1480    0.1070   -1.0310 h4        1 2VV      0.086100
     53 H20         8.8820   -2.6760   -3.7300 hn        1 2VV      0.339500
     54 H21        12.5690    0.3890   -1.8390 ha        1 2VV      0.165000
     55 H22        15.0270    0.8350   -2.0400 ha        1 2VV      0.137000
     56 H23        15.4850   -2.3610   -4.9410 ha        1 2VV      0.146000
     57 H24        12.8730   -3.6350   -5.4370 hn        1 2VV      0.334700
     58 H25        17.3250    0.8400   -1.7630 h4        1 2VV      0.182000
     59 H26        19.6820    0.7440   -2.8100 hn        1 2VV      0.327700
     60 H27        17.5250   -1.4770   -5.4820 h4        1 2VV      0.045100
     61 H211        1.1760   -0.1650    0.2060 hn        1 2VV      0.453800
@<TRIPOS>BOND
     1    1    2 1   
     2    1   35 1   
     3    1   36 1   
     4    1   37 1   
     5    2    3 1   
     6    2    4 1   
     7    2   61 1   
     8    3   38 1   
     9    3   39 1   
    10    3   40 1   
    11    4    5 1   
    12    4   41 1   
    13    4   42 1   
    14    5    6 1   
    15    5   43 1   
    16    5   44 1   
    17    6    7 1   
    18    6   13 1   
    19    6   45 1   
    20    7    8 ar  
    21    7   12 ar  
    22    8    9 ar  
    23    8   46 1   
    24    9   10 ar  
    25    9   47 1   
    26   10   11 ar  
    27   10   48 1   
    28   11   12 ar  
    29   11   49 1   
    30   12   50 1   
    31   13   14 1   
    32   13   17 1   
    33   14   15 2   
    34   14   51 1   
    35   15   16 1   
    36   15   18 1   
    37   16   17 2   
    38   16   52 1   
    39   18   19 1   
    40   18   53 1   
    41   19   20 2   
    42   19   21 1   
    43   21   22 1   
    44   21   29 2   
    45   22   23 ar  
    46   22   27 ar  
    47   23   24 ar  
    48   23   54 1   
    49   24   25 ar  
    50   24   55 1   
    51   25   26 ar  
    52   25   30 1   
    53   26   27 ar  
    54   26   56 1   
    55   27   28 1   
    56   28   29 1   
    57   28   57 1   
    58   30   31 2   
    59   30   34 1   
    60   31   32 1   
    61   31   58 1   
    62   32   33 1   
    63   32   59 1   
    64   33   34 2   
    65   34   60 1   
@<TRIPOS>SUBSTRUCTURE
     1 2VV         1 TEMP              0 ****  ****    0 ROOT
