@<TRIPOS>MOLECULE
2VV
   62    66     1     0     0
SMALL
bcc


@<TRIPOS>ATOM
      1 C1          0.4730   -2.1840    0.6090 c3        1 2VV      0.080100
      2 N2          1.4740   -1.1030    0.3920 n4        1 2VV     -0.677400
      3 C3          1.9070   -0.5240    1.6920 c3        1 2VV      0.080100
      4 C4          2.6400   -1.6220   -0.3980 c3        1 2VV      0.100800
      5 C5          3.5360   -0.5160   -0.9470 c3        1 2VV     -0.109400
      6 C6          4.4580   -1.1160   -2.0300 c3        1 2VV      0.139300
      7 C8          3.6460   -1.5570   -3.2200 ca        1 2VV     -0.182300
      8 C9          3.6110   -2.9160   -3.5560 ca        1 2VV     -0.119000
      9 C10         2.8650   -3.3440   -4.6520 ca        1 2VV     -0.119500
     10 C11         2.1580   -2.4190   -5.4230 ca        1 2VV     -0.089000
     11 C12         2.1970   -1.0630   -5.0930 ca        1 2VV     -0.119500
     12 C13         2.9400   -0.6310   -3.9950 ca        1 2VV     -0.119000
     13 N14         5.5340   -0.1840   -2.4090 na        1 2VV      0.101400
     14 C15         6.7420   -0.5900   -2.9620 cc        1 2VV     -0.022300
     15 C16         7.4350    0.6020   -3.2900 cd        1 2VV     -0.269700
     16 C17         6.5400    1.6830   -2.8980 cd        1 2VV      0.358200
     17 N18         5.4060    1.1590   -2.3880 nc        1 2VV     -0.486800
     18 N19         8.7270    0.7560   -3.8810 n4        1 2VV     -0.494200
     19 C20         9.8140   -0.1990   -3.3590 c         1 2VV      0.538800
     20 O21         9.4350   -1.1430   -2.6810 o         1 2VV     -0.446100
     21 C22        11.1490    0.1450   -3.7710 cc        1 2VV      0.190900
     22 C23        12.3490   -0.5920   -3.4070 ca        1 2VV     -0.148900
     23 C24        12.6600   -1.7190   -2.6450 ca        1 2VV     -0.080000
     24 C25        13.9860   -2.1030   -2.5530 ca        1 2VV     -0.109000
     25 C26        15.0360   -1.3940   -3.2020 ca        1 2VV      0.091000
     26 C27        14.7490   -0.2590   -3.9680 ca        1 2VV     -0.124000
     27 C28        13.4100    0.1320   -4.0660 ca        1 2VV     -0.064200
     28 N29        12.7840    1.2050   -4.7460 na        1 2VV      0.081900
     29 N31        11.4890    1.2150   -4.5790 nd        1 2VV     -0.483100
     30 C32        16.3880   -1.8440   -3.0710 cc        1 2VV     -0.270300
     31 C33        16.9070   -2.8390   -2.2070 cd        1 2VV     -0.094300
     32 N34        18.2700   -2.9010   -2.4590 na        1 2VV      0.003400
     33 N36        18.6580   -2.0380   -3.4040 nd        1 2VV     -0.483800
     34 C37        17.5510   -1.3710   -3.8070 cc        1 2VV      0.326200
     35 H1          0.9500   -3.0310    1.1710 hx        1 2VV      0.110367
     36 H2          0.0980   -2.5520   -0.3840 hx        1 2VV      0.110367
     37 H3         -0.3870   -1.7760    1.2070 hx        1 2VV      0.110367
     38 H5          1.0110   -0.1100    2.2300 hx        1 2VV      0.110367
     39 H6          2.6460    0.3010    1.5040 hx        1 2VV      0.110367
     40 H7          2.3830   -1.3220    2.3220 hx        1 2VV      0.110367
     41 H8          3.2320   -2.3060    0.2750 hx        1 2VV      0.112200
     42 H9          2.2260   -2.2310   -1.2570 hx        1 2VV      0.112200
     43 H10         4.1520   -0.0740   -0.1190 hc        1 2VV      0.088200
     44 H11         2.9260    0.3100   -1.4050 hc        1 2VV      0.088200
     45 H12         4.9910   -2.0140   -1.5860 h1        1 2VV      0.082700
     46 H13         4.1790   -3.6520   -2.9650 ha        1 2VV      0.141000
     47 H14         2.8410   -4.4140   -4.9160 ha        1 2VV      0.161000
     48 H15         1.5750   -2.7590   -6.2940 ha        1 2VV      0.165000
     49 H16         1.6480   -0.3310   -5.7070 ha        1 2VV      0.161000
     50 H17         2.9780    0.4430   -3.7520 ha        1 2VV      0.141000
     51 H18         7.0450   -1.6370   -3.0590 h4        1 2VV      0.220000
     52 H19         6.7020    2.7620   -2.9780 h4        1 2VV      0.077100
     53 H20         8.6500    0.6090   -4.8980 hn        1 2VV      0.469800
     54 H21        11.8630   -2.2830   -2.1370 ha        1 2VV      0.157000
     55 H22        14.2470   -2.9950   -1.9590 ha        1 2VV      0.154000
     56 H23        15.5480    0.3030   -4.4720 ha        1 2VV      0.166000
     57 H24        13.2340    1.9030   -5.3060 hn        1 2VV      0.359700
     58 H25        16.4200   -3.4700   -1.4640 h4        1 2VV      0.185000
     59 H26        18.9380   -3.4970   -2.0220 hn        1 2VV      0.341700
     60 H27        17.5900   -0.6050   -4.5820 h4        1 2VV      0.050100
     61 H211        1.0260   -0.3550   -0.1580 hn        1 2VV      0.454800
     62 H192        9.0380    1.7240   -3.7200 hn        1 2VV      0.469800
@<TRIPOS>BOND
     1    1    2 1   
     2    1   35 1   
     3    1   36 1   
     4    1   37 1   
     5    2    3 1   
     6    2    4 1   
     7    2   61 1   
     8    3   38 1   
     9    3   39 1   
    10    3   40 1   
    11    4    5 1   
    12    4   41 1   
    13    4   42 1   
    14    5    6 1   
    15    5   43 1   
    16    5   44 1   
    17    6    7 1   
    18    6   13 1   
    19    6   45 1   
    20    7    8 ar  
    21    7   12 ar  
    22    8    9 ar  
    23    8   46 1   
    24    9   10 ar  
    25    9   47 1   
    26   10   11 ar  
    27   10   48 1   
    28   11   12 ar  
    29   11   49 1   
    30   12   50 1   
    31   13   14 1   
    32   13   17 1   
    33   14   15 2   
    34   14   51 1   
    35   15   16 1   
    36   15   18 1   
    37   16   17 2   
    38   16   52 1   
    39   18   19 1   
    40   18   53 1   
    41   18   62 1   
    42   19   20 2   
    43   19   21 1   
    44   21   22 1   
    45   21   29 2   
    46   22   23 ar  
    47   22   27 ar  
    48   23   24 ar  
    49   23   54 1   
    50   24   25 ar  
    51   24   55 1   
    52   25   26 ar  
    53   25   30 1   
    54   26   27 ar  
    55   26   56 1   
    56   27   28 1   
    57   28   29 1   
    58   28   57 1   
    59   30   31 2   
    60   30   34 1   
    61   31   32 1   
    62   31   58 1   
    63   32   33 1   
    64   32   59 1   
    65   33   34 2   
    66   34   60 1   
@<TRIPOS>SUBSTRUCTURE
     1 2VV         1 TEMP              0 ****  ****    0 ROOT
