@<TRIPOS>MOLECULE
2VW
   61    65     1     0     0
SMALL
bcc


@<TRIPOS>ATOM
      1 C1         -0.5430   -1.1300   -1.5230 c3        1 2VW      0.081600
      2 N2          0.7720   -0.6010   -1.0800 n4        1 2VW     -0.678400
      3 C3          0.6750   -0.0450    0.2960 c3        1 2VW      0.081600
      4 C4          1.8300   -1.6660   -1.1660 c3        1 2VW      0.101800
      5 C5          3.2370   -1.0890   -1.2530 c3        1 2VW     -0.113400
      6 C6          4.2580   -2.2460   -1.1560 c3        1 2VW      0.146300
      7 C8          4.1880   -2.8620    0.2210 ca        1 2VW     -0.157300
      8 C9          4.5970   -2.1540    1.3550 ca        1 2VW     -0.120500
      9 C10         4.5320   -2.7520    2.6130 ca        1 2VW     -0.126000
     10 C11         4.0590   -4.0580    2.7460 ca        1 2VW     -0.107000
     11 C12         3.6530   -4.7690    1.6150 ca        1 2VW     -0.126000
     12 C13         3.7210   -4.1750    0.3560 ca        1 2VW     -0.120500
     13 N14         5.5880   -1.7980   -1.5480 na        1 2VW      0.060400
     14 C15         6.5990   -2.6960   -1.9570 cc        1 2VW     -0.200300
     15 C16         7.8070   -1.9730   -1.9190 cd        1 2VW     -0.079700
     16 C17         7.4260   -0.6440   -1.4210 cd        1 2VW      0.336200
     17 N18         6.1030   -0.6060   -1.1770 nc        1 2VW     -0.535800
     18 N19         9.0590   -2.4190   -2.2930 n         1 2VW     -0.440100
     19 C20        10.2110   -1.6360   -2.2510 c         1 2VW      0.639800
     20 O21        10.1800   -0.4520   -1.8660 o         1 2VW     -0.590100
     21 C22        11.4750   -2.2690   -2.6820 cc        1 2VW      0.275900
     22 C23        12.7670   -1.5970   -2.6690 ca        1 2VW     -0.172900
     23 C24        13.2450   -0.3350   -2.3160 ca        1 2VW     -0.053000
     24 C25        14.5980   -0.0810   -2.4550 ca        1 2VW     -0.149000
     25 C26        15.5050   -1.0600   -2.9430 ca        1 2VW      0.058000
     26 C27        15.0530   -2.3310   -3.3040 ca        1 2VW     -0.139000
     27 C28        13.6850   -2.5940   -3.1640 ca        1 2VW     -0.054200
     28 N29        12.9060   -3.7380   -3.4250 na        1 2VW      0.004900
     29 N31        11.6240   -3.5430   -3.1450 nd        1 2VW     -0.492100
     30 C32        16.9000   -0.7360   -3.0640 cc        1 2VW     -0.229300
     31 C33        17.5080    0.5380   -3.0520 cd        1 2VW     -0.117300
     32 N34        18.8740    0.3200   -3.2040 na        1 2VW     -0.013600
     33 N36        19.1780   -0.9760   -3.3080 nd        1 2VW     -0.505800
     34 C37        18.0100   -1.6600   -3.2300 cc        1 2VW      0.314200
     35 H1         -1.3220   -0.3270   -1.4180 hx        1 2VW      0.106200
     36 H2         -0.8260   -2.0110   -0.8870 hx        1 2VW      0.106200
     37 H3         -0.4760   -1.4490   -2.5980 hx        1 2VW      0.106200
     38 H5          1.6810    0.3400    0.6150 hx        1 2VW      0.106200
     39 H6          0.3430   -0.8500    1.0040 hx        1 2VW      0.106200
     40 H7         -0.0700    0.7950    0.3050 hx        1 2VW      0.106200
     41 H8          1.7370   -2.3310   -0.2580 hx        1 2VW      0.108700
     42 H9          1.6190   -2.2840   -2.0860 hx        1 2VW      0.108700
     43 H10         3.4330   -0.3650   -0.4180 hc        1 2VW      0.085700
     44 H11         3.3720   -0.5430   -2.2240 hc        1 2VW      0.085700
     45 H12         3.9760   -3.0340   -1.9220 h1        1 2VW      0.067700
     46 H13         4.9940   -1.1310    1.2590 ha        1 2VW      0.141500
     47 H14         4.8700   -2.1960    3.5010 ha        1 2VW      0.148500
     48 H15         4.0180   -4.5320    3.7390 ha        1 2VW      0.150000
     49 H16         3.2950   -5.8040    1.7150 ha        1 2VW      0.148500
     50 H17         3.4250   -4.7530   -0.5330 ha        1 2VW      0.141500
     51 H18         6.3810   -3.7180   -2.2570 h4        1 2VW      0.182000
     52 H19         8.0970    0.2080   -1.2710 h4        1 2VW      0.086100
     53 H20         9.1170   -3.3630   -2.6040 hn        1 2VW      0.338500
     54 H21        12.5450    0.4270   -1.9360 ha        1 2VW      0.165000
     55 H22        14.9940    0.9070   -2.1750 ha        1 2VW      0.137000
     56 H23        15.7450   -3.0920   -3.6870 ha        1 2VW      0.146000
     57 H24        13.2180   -4.6090   -3.7870 hn        1 2VW      0.334700
     58 H25        17.0800    1.5350   -2.9570 h4        1 2VW      0.182000
     59 H26        19.5900    1.0080   -3.2390 hn        1 2VW      0.327700
     60 H27        17.9700   -2.7480   -3.2800 h4        1 2VW      0.045100
     61 H211        1.0450    0.1640   -1.7140 hn        1 2VW      0.452800
@<TRIPOS>BOND
     1    1    2 1   
     2    1   35 1   
     3    1   36 1   
     4    1   37 1   
     5    2    3 1   
     6    2    4 1   
     7    2   61 1   
     8    3   38 1   
     9    3   39 1   
    10    3   40 1   
    11    4    5 1   
    12    4   41 1   
    13    4   42 1   
    14    5    6 1   
    15    5   43 1   
    16    5   44 1   
    17    6    7 1   
    18    6   13 1   
    19    6   45 1   
    20    7    8 ar  
    21    7   12 ar  
    22    8    9 ar  
    23    8   46 1   
    24    9   10 ar  
    25    9   47 1   
    26   10   11 ar  
    27   10   48 1   
    28   11   12 ar  
    29   11   49 1   
    30   12   50 1   
    31   13   14 1   
    32   13   17 1   
    33   14   15 2   
    34   14   51 1   
    35   15   16 1   
    36   15   18 1   
    37   16   17 2   
    38   16   52 1   
    39   18   19 1   
    40   18   53 1   
    41   19   20 2   
    42   19   21 1   
    43   21   22 1   
    44   21   29 2   
    45   22   23 ar  
    46   22   27 ar  
    47   23   24 ar  
    48   23   54 1   
    49   24   25 ar  
    50   24   55 1   
    51   25   26 ar  
    52   25   30 1   
    53   26   27 ar  
    54   26   56 1   
    55   27   28 1   
    56   28   29 1   
    57   28   57 1   
    58   30   31 2   
    59   30   34 1   
    60   31   32 1   
    61   31   58 1   
    62   32   33 1   
    63   32   59 1   
    64   33   34 2   
    65   34   60 1   
@<TRIPOS>SUBSTRUCTURE
     1 2VW         1 TEMP              0 ****  ****    0 ROOT
