@<TRIPOS>MOLECULE
2VW
   62    66     1     0     0
SMALL
bcc


@<TRIPOS>ATOM
      1 C1          0.4640    0.3010   -1.9800 c3        1 2VW      0.081100
      2 N2          1.3720    0.0520   -0.8260 n4        1 2VW     -0.677400
      3 C3          0.6080   -0.5030    0.3230 c3        1 2VW      0.081100
      4 C4          2.4990   -0.8550   -1.2290 c3        1 2VW      0.101800
      5 C5          3.7130   -0.7440   -0.3120 c3        1 2VW     -0.111400
      6 C6          4.7430   -1.8170   -0.7250 c3        1 2VW      0.140300
      7 C8          4.1930   -3.1960   -0.4690 ca        1 2VW     -0.181300
      8 C9          3.9020   -3.6260    0.8300 ca        1 2VW     -0.118500
      9 C10         3.3970   -4.9090    1.0420 ca        1 2VW     -0.119500
     10 C11         3.1830   -5.7660   -0.0380 ca        1 2VW     -0.089000
     11 C12         3.4770   -5.3390   -1.3350 ca        1 2VW     -0.119500
     12 C13         3.9860   -4.0590   -1.5510 ca        1 2VW     -0.118500
     13 N14         6.0430   -1.6080   -0.0630 na        1 2VW      0.101400
     14 C15         7.2490   -2.0720   -0.5730 cc        1 2VW     -0.022300
     15 C16         8.2240   -1.7740    0.4110 cd        1 2VW     -0.269700
     16 C17         7.4880   -1.1300    1.4930 cd        1 2VW      0.358200
     17 N18         6.1810   -1.0680    1.1660 nc        1 2VW     -0.486800
     18 N19         9.6290   -2.0310    0.3900 n4        1 2VW     -0.494200
     19 C20        10.3330   -1.7600   -0.9500 c         1 2VW      0.538800
     20 O21         9.6130   -1.6100   -1.9260 o         1 2VW     -0.447100
     21 C22        11.7690   -1.7480   -0.8710 cc        1 2VW      0.190900
     22 C23        12.6630   -1.5000   -1.9920 ca        1 2VW     -0.148900
     23 C24        12.5360   -1.2180   -3.3530 ca        1 2VW     -0.080000
     24 C25        13.6880   -1.0430   -4.0970 ca        1 2VW     -0.109000
     25 C26        14.9890   -1.1410   -3.5280 ca        1 2VW      0.091000
     26 C27        15.1430   -1.4240   -2.1670 ca        1 2VW     -0.124000
     27 C28        13.9810   -1.6000   -1.4100 ca        1 2VW     -0.064200
     28 N29        13.7780   -1.8900   -0.0390 na        1 2VW      0.081900
     29 N31        12.5130   -1.9750    0.2730 nd        1 2VW     -0.483100
     30 C32        16.1450   -0.9460   -4.3510 cc        1 2VW     -0.270300
     31 C33        16.2190   -0.8660   -5.7630 cd        1 2VW     -0.094300
     32 N34        17.5580   -0.6750   -6.0720 na        1 2VW      0.003400
     33 N36        18.3340   -0.6240   -4.9860 nd        1 2VW     -0.483800
     34 C37        17.5230   -0.7850   -3.9140 cc        1 2VW      0.326200
     35 H1         -0.3870    0.9560   -1.6460 hx        1 2VW      0.110700
     36 H2          1.0320    0.8170   -2.8010 hx        1 2VW      0.110700
     37 H3          0.0590   -0.6760   -2.3560 hx        1 2VW      0.110700
     38 H5          1.3060   -0.6910    1.1820 hx        1 2VW      0.110700
     39 H6          0.1170   -1.4670    0.0200 hx        1 2VW      0.110700
     40 H7         -0.1810    0.2350    0.6340 hx        1 2VW      0.110700
     41 H8          2.1110   -1.9160   -1.2320 hx        1 2VW      0.112200
     42 H9          2.7970   -0.5810   -2.2830 hx        1 2VW      0.112200
     43 H10         4.1680    0.2790   -0.3980 hc        1 2VW      0.088200
     44 H11         3.4240   -0.9070    0.7600 hc        1 2VW      0.088200
     45 H12         4.9580   -1.6990   -1.8330 h1        1 2VW      0.081700
     46 H13         4.0830   -2.9630    1.6910 ha        1 2VW      0.140500
     47 H14         3.1750   -5.2490    2.0670 ha        1 2VW      0.160500
     48 H15         2.7890   -6.7810    0.1320 ha        1 2VW      0.165000
     49 H16         3.3160   -6.0170   -2.1880 ha        1 2VW      0.160500
     50 H17         4.2300   -3.7390   -2.5760 ha        1 2VW      0.140500
     51 H18         7.3550   -2.5340   -1.5600 h4        1 2VW      0.220000
     52 H19         7.8750   -0.7400    2.4390 h4        1 2VW      0.077100
     53 H20         9.7920   -3.0200    0.6300 hn        1 2VW      0.469800
     54 H21        11.5390   -1.1380   -3.8120 ha        1 2VW      0.157000
     55 H22        13.6040   -0.8150   -5.1730 ha        1 2VW      0.154000
     56 H23        16.1410   -1.5080   -1.7130 ha        1 2VW      0.166000
     57 H24        14.4870   -2.0310    0.6540 hn        1 2VW      0.359700
     58 H25        15.4450   -0.9370   -6.5280 h4        1 2VW      0.185000
     59 H26        17.9600   -0.5810   -6.9790 hn        1 2VW      0.341700
     60 H27        17.9070   -0.7770   -2.8930 h4        1 2VW      0.050100
     61 H211        1.7770    0.9540   -0.5340 hn        1 2VW      0.452800
     62 H192       10.0700   -1.4480    1.1160 hn        1 2VW      0.469800
@<TRIPOS>BOND
     1    1    2 1   
     2    1   35 1   
     3    1   36 1   
     4    1   37 1   
     5    2    3 1   
     6    2    4 1   
     7    2   61 1   
     8    3   38 1   
     9    3   39 1   
    10    3   40 1   
    11    4    5 1   
    12    4   41 1   
    13    4   42 1   
    14    5    6 1   
    15    5   43 1   
    16    5   44 1   
    17    6    7 1   
    18    6   13 1   
    19    6   45 1   
    20    7    8 ar  
    21    7   12 ar  
    22    8    9 ar  
    23    8   46 1   
    24    9   10 ar  
    25    9   47 1   
    26   10   11 ar  
    27   10   48 1   
    28   11   12 ar  
    29   11   49 1   
    30   12   50 1   
    31   13   14 1   
    32   13   17 1   
    33   14   15 2   
    34   14   51 1   
    35   15   16 1   
    36   15   18 1   
    37   16   17 2   
    38   16   52 1   
    39   18   19 1   
    40   18   53 1   
    41   18   62 1   
    42   19   20 2   
    43   19   21 1   
    44   21   22 1   
    45   21   29 2   
    46   22   23 ar  
    47   22   27 ar  
    48   23   24 ar  
    49   23   54 1   
    50   24   25 ar  
    51   24   55 1   
    52   25   26 ar  
    53   25   30 1   
    54   26   27 ar  
    55   26   56 1   
    56   27   28 1   
    57   28   29 1   
    58   28   57 1   
    59   30   31 2   
    60   30   34 1   
    61   31   32 1   
    62   31   58 1   
    63   32   33 1   
    64   32   59 1   
    65   33   34 2   
    66   34   60 1   
@<TRIPOS>SUBSTRUCTURE
     1 2VW         1 TEMP              0 ****  ****    0 ROOT
