@<TRIPOS>MOLECULE
2VW
   61    65     1     0     0
SMALL
bcc


@<TRIPOS>ATOM
      1 C1         -0.5340   -1.0060   -1.4300 c3        1 2VW      0.081600
      2 N2          0.7920   -0.5240   -0.9640 nx        1 2VW     -0.678400
      3 C3          0.7110   -0.0530    0.4440 c3        1 2VW      0.081600
      4 C4          1.8330   -1.5970   -1.1230 c3        1 2VW      0.101800
      5 C5          3.2480   -1.0360   -1.1830 c3        1 2VW     -0.113400
      6 C6          4.2520   -2.2110   -1.1660 c3        1 2VW      0.146300
      7 C8          4.1810   -2.9110    0.1700 ca        1 2VW     -0.157300
      8 C9          4.6070   -2.2810    1.3440 ca        1 2VW     -0.120500
      9 C10         4.5400   -2.9560    2.5630 ca        1 2VW     -0.126000
     10 C11         4.0490   -4.2600    2.6170 ca        1 2VW     -0.107000
     11 C12         3.6260   -4.8930    1.4470 ca        1 2VW     -0.126000
     12 C13         3.6950   -4.2230    0.2260 ca        1 2VW     -0.120500
     13 N14         5.5860   -1.7580   -1.5370 na        1 2VW      0.060400
     14 C15         6.5820   -2.6440   -2.0080 cc        1 2VW     -0.200300
     15 C16         7.8000   -1.9420   -1.9330 cd        1 2VW     -0.079700
     16 C17         7.4420   -0.6410   -1.3500 cd        1 2VW      0.336200
     17 N18         6.1210   -0.5990   -1.0960 nc        1 2VW     -0.535800
     18 N19         9.0440   -2.3820   -2.3420 ns        1 2VW     -0.440100
     19 C20        10.2070   -1.6190   -2.2600 c         1 2VW      0.639800
     20 O21        10.1960   -0.4610   -1.8030 o         1 2VW     -0.590100
     21 C22        11.4590   -2.2420   -2.7380 cc        1 2VW      0.275900
     22 C23        12.7610   -1.5890   -2.6950 ca        1 2VW     -0.172900
     23 C24        13.2580   -0.3570   -2.2710 ca        1 2VW     -0.053000
     24 C25        14.6140   -0.1130   -2.4060 ca        1 2VW     -0.149000
     25 C26        15.5040   -1.0730   -2.9590 ca        1 2VW      0.058000
     26 C27        15.0310   -2.3140   -3.3920 ca        1 2VW     -0.139000
     27 C28        13.6610   -2.5670   -3.2570 ca        1 2VW     -0.054200
     28 N29        12.8640   -3.6820   -3.5790 na        1 2VW      0.004900
     29 N31        11.5880   -3.4870   -3.2770 nd        1 2VW     -0.492100
     30 C32        16.9020   -0.7610   -3.0720 cc        1 2VW     -0.229300
     31 C33        17.5270    0.5020   -2.9880 cd        1 2VW     -0.117300
     32 N34        18.8890    0.2760   -3.1650 na        1 2VW     -0.013600
     33 N36        19.1740   -1.0160   -3.3490 nd        1 2VW     -0.505800
     34 C37        17.9980   -1.6880   -3.3030 cc        1 2VW      0.314200
     35 H1         -0.8260   -1.9200   -0.8480 hx        1 2VW      0.106200
     36 H2         -0.4780   -1.2580   -2.5230 hx        1 2VW      0.106200
     37 H3         -1.3000   -0.2000   -1.2710 hx        1 2VW      0.106200
     38 H5         -0.0220    0.7950    0.5090 hx        1 2VW      0.106200
     39 H6          0.3710   -0.8950    1.1030 hx        1 2VW      0.106200
     40 H7          1.7240    0.2970    0.7790 hx        1 2VW      0.106200
     41 H8          1.7350   -2.3150   -0.2570 hx        1 2VW      0.108700
     42 H9          1.6070   -2.1540   -2.0780 hx        1 2VW      0.108700
     43 H10         3.4590   -0.3690   -0.3050 hc        1 2VW      0.085700
     44 H11         3.3850   -0.4320   -2.1190 hc        1 2VW      0.085700
     45 H12         3.9540   -2.9460   -1.9770 h1        1 2VW      0.067700
     46 H13         5.0180   -1.2600    1.3100 ha        1 2VW      0.141500
     47 H14         4.8910   -2.4610    3.4820 ha        1 2VW      0.148500
     48 H15         4.0060   -4.7950    3.5780 ha        1 2VW      0.150000
     49 H16         3.2520   -5.9280    1.4840 ha        1 2VW      0.148500
     50 H17         3.3860   -4.7400   -0.6950 ha        1 2VW      0.141500
     51 H18         6.3480   -3.6420   -2.3700 h4        1 2VW      0.182000
     52 H19         8.1260    0.1910   -1.1530 h4        1 2VW      0.086100
     53 H20         9.0870   -3.3050   -2.7110 hn        1 2VW      0.338500
     54 H21        12.5720    0.3900   -1.8410 ha        1 2VW      0.165000
     55 H22        15.0250    0.8510   -2.0700 ha        1 2VW      0.137000
     56 H23        15.7100   -3.0600   -3.8250 ha        1 2VW      0.146000
     57 H24        13.1620   -4.5340   -3.9940 hn        1 2VW      0.334700
     58 H25        17.1140    1.4970   -2.8300 h4        1 2VW      0.182000
     59 H26        19.6150    0.9540   -3.1640 hn        1 2VW      0.327700
     60 H27        17.9430   -2.7700   -3.4180 h4        1 2VW      0.045100
     61 H211        1.0720    0.2750   -1.5510 hn        1 2VW      0.452800
@<TRIPOS>BOND
     1    1    2 1   
     2    1   35 1   
     3    1   36 1   
     4    1   37 1   
     5    2    3 1   
     6    2    4 1   
     7    2   61 1   
     8    3   38 1   
     9    3   39 1   
    10    3   40 1   
    11    4    5 1   
    12    4   41 1   
    13    4   42 1   
    14    5    6 1   
    15    5   43 1   
    16    5   44 1   
    17    6    7 1   
    18    6   13 1   
    19    6   45 1   
    20    7    8 ar  
    21    7   12 ar  
    22    8    9 ar  
    23    8   46 1   
    24    9   10 ar  
    25    9   47 1   
    26   10   11 ar  
    27   10   48 1   
    28   11   12 ar  
    29   11   49 1   
    30   12   50 1   
    31   13   14 1   
    32   13   17 1   
    33   14   15 2   
    34   14   51 1   
    35   15   16 1   
    36   15   18 1   
    37   16   17 2   
    38   16   52 1   
    39   18   19 1   
    40   18   53 1   
    41   19   20 2   
    42   19   21 1   
    43   21   22 1   
    44   21   29 2   
    45   22   23 ar  
    46   22   27 ar  
    47   23   24 ar  
    48   23   54 1   
    49   24   25 ar  
    50   24   55 1   
    51   25   26 ar  
    52   25   30 1   
    53   26   27 ar  
    54   26   56 1   
    55   27   28 1   
    56   28   29 1   
    57   28   57 1   
    58   30   31 2   
    59   30   34 1   
    60   31   32 1   
    61   31   58 1   
    62   32   33 1   
    63   32   59 1   
    64   33   34 2   
    65   34   60 1   
@<TRIPOS>SUBSTRUCTURE
     1 2VW         1 TEMP              0 ****  ****    0 ROOT
