@<TRIPOS>MOLECULE
2VX
   49    51     1     0     0
SMALL
bcc


@<TRIPOS>ATOM
      1 N1         -0.2340    0.1290    0.4740 nh        1 2VX     -0.524400
      2 C2          1.1570    0.1110    0.1540 ca        1 2VX      0.059600
      3 C3          2.1140    0.1380    1.2040 ca        1 2VX      0.124900
      4 C4          3.5170    0.1540    0.9300 ca        1 2VX      0.110600
      5 C5          3.9410    0.1300   -0.4120 ca        1 2VX     -0.127000
      6 C6          3.0200    0.1180   -1.4470 ca        1 2VX     -0.150000
      7 C7          1.6420    0.1060   -1.1820 ca        1 2VX      0.117900
      8 F8          0.7770    0.0930   -2.2240 f         1 2VX     -0.126900
      9 F9          1.7020    0.1310    2.4960 f         1 2VX     -0.121900
     10 N10         4.4350    0.1740    1.9900 nu        1 2VX     -0.775500
     11 S11         5.9100    0.8780    2.0350 s6        1 2VX      1.458900
     12 C12         5.5280    2.5420    2.1880 c3        1 2VX     -0.328600
     13 C13         6.4800    4.8430    2.4050 c3        1 2VX     -0.087100
     14 C14         6.7900    3.3750    2.2710 c3        1 2VX     -0.057400
     15 C15        -0.8960   -1.1270    0.4610 ca        1 2VX      0.126600
     16 C16        -0.2570   -2.2630    1.0270 ca        1 2VX     -0.121000
     17 C17        -0.9000   -3.4820    1.1160 ca        1 2VX     -0.094000
     18 C18        -2.2250   -3.6330    0.6440 ca        1 2VX      0.148400
     19 C19        -2.8630   -2.5010    0.0770 ca        1 2VX     -0.157600
     20 C20        -2.2070   -1.2700   -0.0210 ca        1 2VX     -0.113000
     21 N21        -2.8820   -4.8690    0.7360 nc        1 2VX     -0.607100
     22 C22        -4.1070   -4.9380    0.2790 cd        1 2VX      0.481800
     23 N23        -4.8420   -3.8990   -0.3000 n         1 2VX     -0.402300
     24 C24        -4.2490   -2.6240   -0.4270 c         1 2VX      0.706100
     25 C25        -6.1850   -4.1470   -0.7500 c3        1 2VX      0.068300
     26 O26        -4.8880   -1.6850   -0.9380 o         1 2VX     -0.625500
     27 O27         6.5440    0.4430    3.2150 o         1 2VX     -0.643800
     28 O28         6.6010    0.6880    0.8250 o         1 2VX     -0.643800
     29 C29        -0.9570    1.2730   -0.0340 c3        1 2VX      0.176100
     30 H1          5.0200    0.1200   -0.6580 ha        1 2VX      0.188000
     31 H2          3.3650    0.1060   -2.4940 ha        1 2VX      0.164000
     32 H3          4.0830   -0.2690    2.8140 hn        1 2VX      0.465800
     33 H4          4.9120    2.7500    3.1030 h1        1 2VX      0.114700
     34 H5          4.9160    2.9180    1.3260 h1        1 2VX      0.114700
     35 H6          5.8930    5.2040    1.5260 hc        1 2VX      0.038700
     36 H7          5.8840    5.0380    3.3290 hc        1 2VX      0.038700
     37 H8          7.4280    5.4300    2.4640 hc        1 2VX      0.038700
     38 H9          7.3980    3.0370    3.1540 hc        1 2VX      0.061700
     39 H10         7.4070    3.2040    1.3460 hc        1 2VX      0.061700
     40 H11         0.7710   -2.1680    1.4140 ha        1 2VX      0.143000
     41 H12        -0.3800   -4.3460    1.5620 ha        1 2VX      0.155000
     42 H13        -2.7550   -0.4320   -0.4850 ha        1 2VX      0.163000
     43 H14        -4.6320   -5.9160    0.3510 h5        1 2VX      0.053800
     44 H15        -6.6140   -3.2070   -1.1910 h1        1 2VX      0.058367
     45 H16        -6.8250   -4.4730    0.1130 h1        1 2VX      0.058367
     46 H17        -6.1850   -4.9530   -1.5310 h1        1 2VX      0.058367
     47 H18        -1.9170    1.3670    0.5390 h1        1 2VX      0.050033
     48 H19        -1.1860    1.1920   -1.1320 h1        1 2VX      0.050033
     49 H20        -0.3390    2.1930    0.1400 h1        1 2VX      0.050033
@<TRIPOS>BOND
     1    1    2 1   
     2    1   15 1   
     3    1   29 1   
     4    2    3 ar  
     5    2    7 ar  
     6    3    4 ar  
     7    3    9 1   
     8    4    5 ar  
     9    4   10 1   
    10    5    6 ar  
    11    5   30 1   
    12    6    7 ar  
    13    6   31 1   
    14    7    8 1   
    15   10   11 1   
    16   10   32 1   
    17   11   12 1   
    18   11   27 2   
    19   11   28 2   
    20   12   14 1   
    21   12   33 1   
    22   12   34 1   
    23   13   14 1   
    24   13   35 1   
    25   13   36 1   
    26   13   37 1   
    27   14   38 1   
    28   14   39 1   
    29   15   16 ar  
    30   15   20 ar  
    31   16   17 ar  
    32   16   40 1   
    33   17   18 ar  
    34   17   41 1   
    35   18   19 ar  
    36   18   21 1   
    37   19   20 ar  
    38   19   24 1   
    39   20   42 1   
    40   21   22 2   
    41   22   23 1   
    42   22   43 1   
    43   23   24 1   
    44   23   25 1   
    45   24   26 2   
    46   25   44 1   
    47   25   45 1   
    48   25   46 1   
    49   29   47 1   
    50   29   48 1   
    51   29   49 1   
@<TRIPOS>SUBSTRUCTURE
     1 2VX         1 TEMP              0 ****  ****    0 ROOT
