@<TRIPOS>MOLECULE
2VX
   49    51     1     0     0
SMALL
bcc


@<TRIPOS>ATOM
      1 N1          0.1090   -0.0790   -0.9600 nh        1 2VX     -0.523400
      2 C2          1.5010   -0.1340   -0.6490 ca        1 2VX      0.060600
      3 C3          2.0060    0.0750    0.6640 ca        1 2VX      0.092900
      4 C4          3.4040    0.0470    0.9430 ca        1 2VX      0.116600
      5 C5          4.2920   -0.2110   -0.1220 ca        1 2VX     -0.126000
      6 C6          3.8180   -0.4060   -1.4070 ca        1 2VX     -0.156000
      7 C7          2.4410   -0.3720   -1.6880 ca        1 2VX      0.147900
      8 F8          2.0350   -0.5760   -2.9610 f         1 2VX     -0.116900
      9 F9          1.1370    0.2970    1.6830 f         1 2VX     -0.131900
     10 N10         3.8640    0.2520    2.2510 nh        1 2VX     -0.775500
     11 S11         5.2640    0.9430    2.7340 s6        1 2VX      1.458900
     12 C12         4.9730    2.6100    2.4590 c3        1 2VX     -0.327600
     13 C13         5.9420    4.9070    2.6380 c3        1 2VX     -0.087100
     14 C14         6.1730    3.4370    2.8720 c3        1 2VX     -0.057400
     15 C15        -0.6350   -1.2610   -0.7040 ca        1 2VX      0.123600
     16 C16        -0.0960   -2.5220   -1.0790 ca        1 2VX     -0.119000
     17 C17        -0.8210   -3.6880   -0.9320 ca        1 2VX     -0.095000
     18 C18        -2.1320   -3.6580   -0.4000 ca        1 2VX      0.149400
     19 C19        -2.6700   -2.4010   -0.0240 ca        1 2VX     -0.158600
     20 C20        -1.9310   -1.2220   -0.1660 ca        1 2VX     -0.113000
     21 N21        -2.8720   -4.8400   -0.2530 nc        1 2VX     -0.607100
     22 C22        -4.0790   -4.7400    0.2450 cd        1 2VX      0.482800
     23 N23        -4.7200   -3.5660    0.6520 n         1 2VX     -0.402300
     24 C24        -4.0390   -2.3340    0.5350 c         1 2VX      0.706100
     25 C25        -6.0560   -3.6340    1.1770 c3        1 2VX      0.068300
     26 O26        -4.5920   -1.2770    0.8920 o         1 2VX     -0.625500
     27 O27         5.3830    0.7220    4.1200 o         1 2VX     -0.643800
     28 O28         6.3380    0.5370    1.9220 o         1 2VX     -0.643800
     29 C29        -0.5280    1.1870   -0.6780 c3        1 2VX      0.176100
     30 H1          5.3830   -0.2630    0.0600 ha        1 2VX      0.187000
     31 H2          4.5240   -0.6000   -2.2310 ha        1 2VX      0.164000
     32 H3          3.2040   -0.0430    2.9410 hn        1 2VX      0.465800
     33 H4          4.0810    2.9810    3.0290 h1        1 2VX      0.114200
     34 H5          4.7520    2.8290    1.3810 h1        1 2VX      0.114200
     35 H6          5.7490    5.1090    1.5570 hc        1 2VX      0.038700
     36 H7          6.8420    5.4900    2.9520 hc        1 2VX      0.038700
     37 H8          5.0640    5.2680    3.2250 hc        1 2VX      0.038700
     38 H9          7.0730    3.1000    2.2890 hc        1 2VX      0.061700
     39 H10         6.3860    3.2590    3.9610 hc        1 2VX      0.061700
     40 H11         0.9180   -2.5690   -1.5090 ha        1 2VX      0.145000
     41 H12        -0.3780   -4.6510   -1.2330 ha        1 2VX      0.156000
     42 H13        -2.4030   -0.2790    0.1560 ha        1 2VX      0.163000
     43 H14        -4.6700   -5.6750    0.3630 h5        1 2VX      0.053800
     44 H15        -6.0780   -4.2870    2.0890 h1        1 2VX      0.058700
     45 H16        -6.7510   -4.0610    0.4040 h1        1 2VX      0.058700
     46 H17        -6.4050   -2.6030    1.4540 h1        1 2VX      0.058700
     47 H18        -1.4960    1.2280   -1.2440 h1        1 2VX      0.049700
     48 H19         0.1400    2.0120   -1.0410 h1        1 2VX      0.049700
     49 H20        -0.7320    1.3410    0.4170 h1        1 2VX      0.049700
@<TRIPOS>BOND
     1    1    2 1   
     2    1   15 1   
     3    1   29 1   
     4    2    3 ar  
     5    2    7 ar  
     6    3    4 ar  
     7    3    9 1   
     8    4    5 ar  
     9    4   10 1   
    10    5    6 ar  
    11    5   30 1   
    12    6    7 ar  
    13    6   31 1   
    14    7    8 1   
    15   10   11 1   
    16   10   32 1   
    17   11   12 1   
    18   11   27 2   
    19   11   28 2   
    20   12   14 1   
    21   12   33 1   
    22   12   34 1   
    23   13   14 1   
    24   13   35 1   
    25   13   36 1   
    26   13   37 1   
    27   14   38 1   
    28   14   39 1   
    29   15   16 ar  
    30   15   20 ar  
    31   16   17 ar  
    32   16   40 1   
    33   17   18 ar  
    34   17   41 1   
    35   18   19 ar  
    36   18   21 1   
    37   19   20 ar  
    38   19   24 1   
    39   20   42 1   
    40   21   22 2   
    41   22   23 1   
    42   22   43 1   
    43   23   24 1   
    44   23   25 1   
    45   24   26 2   
    46   25   44 1   
    47   25   45 1   
    48   25   46 1   
    49   29   47 1   
    50   29   48 1   
    51   29   49 1   
@<TRIPOS>SUBSTRUCTURE
     1 2VX         1 TEMP              0 ****  ****    0 ROOT
