@<TRIPOS>MOLECULE
2VX
   51    52     1     0     0
SMALL
bcc


@<TRIPOS>ATOM
      1 N1          0.3770   -0.4690   -1.9410 n4        1 2VX     -0.406200
      2 C2          1.6080   -0.5670   -1.1390 ca        1 2VX     -0.088400
      3 C3          1.7570    0.0400    0.1340 ca        1 2VX      0.175900
      4 C4          2.9490   -0.1370    0.8940 ca        1 2VX     -0.014400
      5 C5          3.9900   -0.9170    0.3570 ca        1 2VX     -0.032000
      6 C6          3.8700   -1.4970   -0.8960 ca        1 2VX     -0.128000
      7 C7          2.6940   -1.3370   -1.6490 ca        1 2VX      0.205900
      8 F8          2.6000   -1.9110   -2.8650 f         1 2VX     -0.089900
      9 F9          0.7690    0.8070    0.6490 f         1 2VX     -0.111900
     10 N10         3.0880    0.4470    2.1990 nh        1 2VX     -0.879200
     11 S11         5.1980    1.4310    2.8970 s4        1 2VX      1.623500
     12 C12         4.7450    2.9660    2.7250 c3        1 2VX     -0.514100
     13 C13         5.2930    5.3620    3.2350 c3        1 2VX     -0.103100
     14 C14         5.7520    3.9340    3.3770 c3        1 2VX     -0.050400
     15 C15        -0.6220   -1.4860   -1.5550 ca        1 2VX     -0.111400
     16 C16        -0.9540   -2.4990   -2.4950 ca        1 2VX     -0.082000
     17 C17        -1.9080   -3.4440   -2.1890 ca        1 2VX     -0.090000
     18 C18        -2.5690   -3.4270   -0.9250 ca        1 2VX      0.255400
     19 C19        -2.2030   -2.4170    0.0070 ca        1 2VX     -0.210600
     20 C20        -1.2450   -1.4500   -0.3080 ca        1 2VX     -0.013000
     21 N21        -3.5410   -4.3690   -0.6190 nc        1 2VX     -0.618100
     22 C22        -4.1180   -4.2930    0.5680 cd        1 2VX      0.547800
     23 N23        -3.8420   -3.3660    1.5650 n         1 2VX     -0.372300
     24 C24        -2.8500   -2.3850    1.3390 c         1 2VX      0.706100
     25 C25        -4.5620   -3.4180    2.8160 c3        1 2VX      0.052300
     26 O26        -2.5430   -1.5580    2.2150 o         1 2VX     -0.605500
     27 O27         5.0440    0.8590    4.1100 o         1 2VX     -0.399900
     28 O28         5.8850    0.8600    1.8840 o         1 2VX     -0.399900
     29 C29        -0.2170    0.8990   -1.9690 c3        1 2VX      0.091100
     30 H1          4.9290   -1.0750    0.9230 ha        1 2VX      0.193000
     31 H2          4.6970   -2.1020   -1.3170 ha        1 2VX      0.212000
     32 H3          2.9920   -0.2870    2.8930 hn        1 2VX      0.419300
     33 H4          4.6370    3.3180    1.6530 h1        1 2VX      0.191700
     34 H5          3.7430    3.2290    3.1890 h1        1 2VX      0.191700
     35 H6          4.3110    5.5210    3.7420 hc        1 2VX      0.071033
     36 H7          5.1950    5.6470    2.1600 hc        1 2VX      0.071033
     37 H8          6.0470    6.0410    3.7110 hc        1 2VX      0.071033
     38 H9          5.8520    3.6830    4.4680 hc        1 2VX      0.078700
     39 H10         6.7520    3.8160    2.8800 hc        1 2VX      0.078700
     40 H11        -0.4570   -2.5420   -3.4800 ha        1 2VX      0.160000
     41 H12        -2.1730   -4.2260   -2.9260 ha        1 2VX      0.197000
     42 H13        -1.0150   -0.6800    0.4510 ha        1 2VX      0.168000
     43 H14        -4.9070   -5.0500    0.7980 h5        1 2VX      0.092800
     44 H15        -5.6670   -3.4150    2.6170 h1        1 2VX      0.080700
     45 H16        -4.2850   -4.3530    3.3740 h1        1 2VX      0.080700
     46 H17        -4.2960   -2.5230    3.4410 h1        1 2VX      0.080700
     47 H18         0.5990    1.6550   -2.1060 hx        1 2VX      0.112033
     48 H19        -0.7770    1.1010   -1.0160 hx        1 2VX      0.112033
     49 H20        -0.9400    0.9470   -2.8300 hx        1 2VX      0.112033
     50 H111        0.6570   -0.6890   -2.9170 hn        1 2VX      0.469800
     51 H102        2.3490    1.1180    2.3540 hn        1 2VX      0.419300
@<TRIPOS>BOND
     1    1    2 1   
     2    1   15 1   
     3    1   29 1   
     4    1   50 1   
     5    2    3 ar  
     6    2    7 ar  
     7    3    4 ar  
     8    3    9 1   
     9    4    5 ar  
    10    4   10 1   
    11    5    6 ar  
    12    5   30 1   
    13    6    7 ar  
    14    6   31 1   
    15    7    8 1   
    16   10   32 1   
    17   10   51 1   
    18   11   12 1   
    19   11   27 1   
    20   11   28 1   
    21   12   14 1   
    22   12   33 1   
    23   12   34 1   
    24   13   14 1   
    25   13   35 1   
    26   13   36 1   
    27   13   37 1   
    28   14   38 1   
    29   14   39 1   
    30   15   16 ar  
    31   15   20 ar  
    32   16   17 ar  
    33   16   40 1   
    34   17   18 ar  
    35   17   41 1   
    36   18   19 ar  
    37   18   21 1   
    38   19   20 ar  
    39   19   24 1   
    40   20   42 1   
    41   21   22 2   
    42   22   23 1   
    43   22   43 1   
    44   23   24 1   
    45   23   25 1   
    46   24   26 2   
    47   25   44 1   
    48   25   45 1   
    49   25   46 1   
    50   29   47 1   
    51   29   48 1   
    52   29   49 1   
@<TRIPOS>SUBSTRUCTURE
     1 2VX         1 TEMP              0 ****  ****    0 ROOT
