@<TRIPOS>MOLECULE
2VY
   30    31     1     0     0
SMALL
bcc


@<TRIPOS>ATOM
      1 CM2         0.0610   -0.2330    0.0950 c3        1 2VY     -0.160000
      2 O1          5.1170   -5.7320   -2.9160 o         1 2VY     -0.293000
      3 C6          5.2620   -4.5950   -3.3720 c2        1 2VY      0.257000
      4 C2          6.1590   -2.0770   -0.6910 c1        1 2VY     -0.803000
      5 S1          5.8180   -3.4980   -0.8070 ss        1 2VY      1.029000
      6 C5          5.6230   -3.4420   -2.5640 c2        1 2VY     -0.574000
      7 C4          5.8510   -2.1780   -3.0060 c2        1 2VY      0.002000
      8 C3          6.2490   -1.2240   -1.8640 c3        1 2VY     -0.037000
      9 C7A         5.4450    0.0670   -1.8210 c3        1 2VY     -0.059000
     10 C4A         3.7770   -0.1470    0.1150 c2        1 2VY      0.171000
     11 N3A         2.4720   -0.2170    0.5520 n2        1 2VY     -0.246000
     12 C2A         1.4910   -0.1730   -0.3880 c2        1 2VY      0.065000
     13 N1A         1.6850   -0.0840   -1.7460 n2        1 2VY     -0.217000
     14 C6A         2.9620   -0.0280   -2.1570 c2        1 2VY     -0.006000
     15 C5A         4.0690   -0.0580   -1.2920 c2        1 2VY     -0.258000
     16 H1          0.0100   -0.3610    1.2030 hc        1 2VY      0.100667
     17 H2         -0.4630   -1.0900   -0.3940 hc        1 2VY      0.100667
     18 H3         -0.4600    0.7160   -0.1840 hc        1 2VY      0.100667
     19 H4          5.6780   -0.4660    0.7380 hn        1 2VY      0.228500
     20 H5          4.5590   -0.3050    1.9920 hn        1 2VY      0.228500
     21 H6          6.5900   -0.9130   -4.5610 hc        1 2VY      0.101000
     22 H7          4.7930   -1.1640   -4.5400 hc        1 2VY      0.101000
     23 H8          5.8860   -2.4860   -5.1330 hc        1 2VY      0.101000
     24 H10         5.1190   -4.3890   -4.4580 h4        1 2VY      0.092000
     25 H12         7.3330   -0.9420   -2.0330 hc        1 2VY      0.148000
     26 H13         5.4050    0.4810   -2.8670 hc        1 2VY      0.096500
     27 H14         6.0190    0.8070   -1.1970 hc        1 2VY      0.096500
     28 H15         3.1100    0.0490   -3.2510 h4        1 2VY      0.151000
     29 N4A         4.8010   -0.0940    1.0490 nh        1 2VY     -0.326000
     30 CM4         5.7830   -1.6670   -4.3800 c3        1 2VY     -0.193000
@<TRIPOS>BOND
     1    1   12 1   
     2    1   16 1   
     3    1   17 1   
     4    1   18 1   
     5    2    3 1   
     6    3    6 1   
     7    3   24 1   
     8    4    5 1   
     9    4    8 1   
    10    5    6 1   
    11    6    7 1   
    12    7    8 1   
    13    7   30 1   
    14    8    9 1   
    15    8   25 1   
    16    9   15 1   
    17    9   26 1   
    18    9   27 1   
    19   10   11 1   
    20   10   15 1   
    21   10   29 1   
    22   11   12 1   
    23   12   13 1   
    24   13   14 1   
    25   14   15 1   
    26   14   28 1   
    27   19   29 1   
    28   20   29 1   
    29   21   30 1   
    30   22   30 1   
    31   23   30 1   
@<TRIPOS>SUBSTRUCTURE
     1 2VY         1 TEMP              0 ****  ****    0 ROOT
