@<TRIPOS>MOLECULE
2VY
   30    31     1     0     0
SMALL
bcc


@<TRIPOS>ATOM
      1 CM2         0.0430   -0.1990    0.0850 c3        1 2VY     -0.160000
      2 O1          5.0800   -5.6560   -3.0300 o         1 2VY     -0.293000
      3 C6          5.2430   -4.5070   -3.4500 c2        1 2VY      0.257000
      4 C2          6.1320   -2.0820   -0.6810 c1        1 2VY     -0.803000
      5 S1          5.7770   -3.4940   -0.8460 ss        1 2VY      1.029000
      6 C5          5.6050   -3.3830   -2.6020 c2        1 2VY     -0.574000
      7 C4          5.8520   -2.1080   -3.0030 c2        1 2VY      0.002000
      8 C3          6.2450   -1.1940   -1.8270 c3        1 2VY     -0.037000
      9 C7A         5.4540    0.1040   -1.7540 c3        1 2VY     -0.059000
     10 C4A         3.7600   -0.1520    0.1530 c2        1 2VY      0.171000
     11 N3A         2.4480   -0.2210    0.5730 n2        1 2VY     -0.246000
     12 C2A         1.4800   -0.1390   -0.3780 c2        1 2VY      0.065000
     13 N1A         1.6920   -0.0100   -1.7300 n2        1 2VY     -0.217000
     14 C6A         2.9750    0.0450   -2.1230 c2        1 2VY     -0.006000
     15 C5A         4.0700   -0.0220   -1.2460 c2        1 2VY     -0.258000
     16 H1         -0.0230   -0.3500    1.1900 hc        1 2VY      0.100667
     17 H2         -0.4800   -1.0420   -0.4290 hc        1 2VY      0.100667
     18 H3         -0.4680    0.7590   -0.1810 hc        1 2VY      0.100667
     19 H4          4.5160   -0.3750    2.0340 hn        1 2VY      0.228500
     20 H5          5.6490   -0.5100    0.7900 hn        1 2VY      0.228500
     21 H6          4.8230   -1.0380   -4.5180 hc        1 2VY      0.101000
     22 H7          6.6230   -0.8040   -4.5090 hc        1 2VY      0.101000
     23 H8          5.9120   -2.3520   -5.1380 hc        1 2VY      0.101000
     24 H10         5.1160   -4.2670   -4.5310 h4        1 2VY      0.092000
     25 H12         7.3340   -0.9180   -1.9740 hc        1 2VY      0.148000
     26 H13         5.4310    0.5500   -2.7880 hc        1 2VY      0.096500
     27 H14         6.0280    0.8180   -1.1000 hc        1 2VY      0.096500
     28 H15         3.1370    0.1530   -3.2120 h4        1 2VY      0.151000
     29 N4A         4.7720   -0.1370    1.1020 nh        1 2VY     -0.326000
     30 CM4         5.8070   -1.5550   -4.3600 c3        1 2VY     -0.193000
@<TRIPOS>BOND
     1    1   12 1   
     2    1   16 1   
     3    1   17 1   
     4    1   18 1   
     5    2    3 1   
     6    3    6 1   
     7    3   24 1   
     8    4    5 1   
     9    4    8 1   
    10    5    6 1   
    11    6    7 1   
    12    7    8 1   
    13    7   30 1   
    14    8    9 1   
    15    8   25 1   
    16    9   15 1   
    17    9   26 1   
    18    9   27 1   
    19   10   11 1   
    20   10   15 1   
    21   10   29 1   
    22   11   12 1   
    23   12   13 1   
    24   13   14 1   
    25   14   15 1   
    26   14   28 1   
    27   19   29 1   
    28   20   29 1   
    29   21   30 1   
    30   22   30 1   
    31   23   30 1   
@<TRIPOS>SUBSTRUCTURE
     1 2VY         1 TEMP              0 ****  ****    0 ROOT
