@<TRIPOS>MOLECULE
2VY
   30    31     1     0     0
SMALL
bcc


@<TRIPOS>ATOM
      1 CM2         0.0510   -0.2440    0.1280 c3        1 2VY     -0.160000
      2 O1          5.1040   -5.6390   -3.0690 o         1 2VY     -0.293000
      3 C6          5.2540   -4.4860   -3.4820 c2        1 2VY      0.257000
      4 C2          6.1480   -2.0720   -0.7050 c1        1 2VY     -0.803000
      5 S1          5.8030   -3.4870   -0.8760 ss        1 2VY      1.029000
      6 C5          5.6150   -3.3650   -2.6300 c2        1 2VY     -0.574000
      7 C4          5.8480   -2.0860   -3.0240 c2        1 2VY      0.002000
      8 C3          6.2440   -1.1760   -1.8450 c3        1 2VY     -0.037000
      9 C7A         5.4420    0.1150   -1.7560 c3        1 2VY     -0.059000
     10 C4A         3.7680   -0.1680    0.1640 c2        1 2VY      0.171000
     11 N3A         2.4600   -0.2510    0.5940 n2        1 2VY     -0.246000
     12 C2A         1.4840   -0.1700   -0.3480 c2        1 2VY      0.065000
     13 N1A         1.6830   -0.0300   -1.7000 n2        1 2VY     -0.217000
     14 C6A         2.9610    0.0380   -2.1050 c2        1 2VY     -0.006000
     15 C5A         4.0650   -0.0260   -1.2370 c2        1 2VY     -0.258000
     16 H1         -0.0040   -0.4090    1.2310 hc        1 2VY      0.100667
     17 H2         -0.4710   -1.0850   -0.3910 hc        1 2VY      0.100667
     18 H3         -0.4680    0.7130   -0.1220 hc        1 2VY      0.100667
     19 H4          4.5420   -0.3980    2.0360 hn        1 2VY      0.228500
     20 H5          5.6660   -0.5150    0.7820 hn        1 2VY      0.228500
     21 H6          4.7970   -1.0130   -4.5220 hc        1 2VY      0.101000
     22 H7          6.5940   -0.7640   -4.5270 hc        1 2VY      0.101000
     23 H8          5.8910   -2.3140   -5.1610 hc        1 2VY      0.101000
     24 H10         5.1150   -4.2390   -4.5600 h4        1 2VY      0.092000
     25 H12         7.3290   -0.8910   -2.0000 hc        1 2VY      0.148000
     26 H13         5.4070    0.5670   -2.7870 hc        1 2VY      0.096500
     27 H14         6.0170    0.8290   -1.1030 hc        1 2VY      0.096500
     28 H15         3.1130    0.1550   -3.1940 h4        1 2VY      0.151000
     29 N4A         4.7880   -0.1520    1.1030 nv        1 2VY     -0.326000
     30 CM4         5.7860   -1.5240   -4.3770 c3        1 2VY     -0.193000
@<TRIPOS>BOND
     1    1   12 1   
     2    1   16 1   
     3    1   17 1   
     4    1   18 1   
     5    2    3 1   
     6    3    6 1   
     7    3   24 1   
     8    4    5 1   
     9    4    8 1   
    10    5    6 1   
    11    6    7 1   
    12    7    8 1   
    13    7   30 1   
    14    8    9 1   
    15    8   25 1   
    16    9   15 1   
    17    9   26 1   
    18    9   27 1   
    19   10   11 1   
    20   10   15 1   
    21   10   29 1   
    22   11   12 1   
    23   12   13 1   
    24   13   14 1   
    25   14   15 1   
    26   14   28 1   
    27   19   29 1   
    28   20   29 1   
    29   21   30 1   
    30   22   30 1   
    31   23   30 1   
@<TRIPOS>SUBSTRUCTURE
     1 2VY         1 TEMP              0 ****  ****    0 ROOT
