@<TRIPOS>MOLECULE
2VZ
   46    47     1     0     0
SMALL
bcc


@<TRIPOS>ATOM
      1 C2'        -0.7410   -0.1190    0.4410 c3        1 2VZ     -0.033200
      2 C1'         0.4630    0.7690    0.2060 c3        1 2VZ     -0.073400
      3 C18         1.2730    0.9340    1.4730 c3        1 2VZ     -0.031100
      4 C5          1.4930   -0.3490    2.1960 ca        1 2VZ     -0.069300
      5 C4          2.4880   -0.3890    3.1790 ca        1 2VZ     -0.135000
      6 C3          2.7190   -1.5450    3.9270 ca        1 2VZ     -0.090300
      7 C6'         3.7910   -1.5820    4.9470 c3        1 2VZ     -0.046800
      8 C2          1.9270   -2.6740    3.6870 ca        1 2VZ     -0.134000
      9 C1          0.9390   -2.6440    2.7090 ca        1 2VZ     -0.123000
     10 C6          0.7120   -1.4940    1.9370 ca        1 2VZ     -0.020800
     11 C7         -0.3170   -1.4750    0.8970 ce        1 2VZ     -0.098400
     12 C8         -0.8170   -2.6090    0.3620 cf        1 2VZ     -0.064000
     13 C9         -1.8780   -2.7110   -0.6250 cf        1 2VZ     -0.174200
     14 C19        -3.1400   -1.9680   -0.3740 c3        1 2VZ     -0.039900
     15 C10        -1.7690   -3.5050   -1.7160 ce        1 2VZ     -0.048000
     16 C11        -0.5990   -4.2590   -2.0770 ce        1 2VZ     -0.243000
     17 C12        -0.5210   -5.2640   -2.9710 cf        1 2VZ     -0.019000
     18 C13        -1.5770   -5.9050   -3.7310 cf        1 2VZ     -0.169200
     19 C20        -2.9610   -5.9150   -3.1890 c3        1 2VZ     -0.043900
     20 C14        -1.3100   -6.5300   -4.8960 ce        1 2VZ     -0.137200
     21 C15         0.0270   -6.6230   -5.6000 c         1 2VZ      0.891800
     22 O1          1.0700   -6.8610   -4.9250 o         1 2VZ     -0.829300
     23 O2          0.0140   -6.4860   -6.8560 o         1 2VZ     -0.829300
     24 H1         -1.4080    0.3420    1.2190 hc        1 2VZ      0.047700
     25 H2         -1.3320   -0.1950   -0.5110 hc        1 2VZ      0.047700
     26 H3          1.1040    0.3210   -0.5980 hc        1 2VZ      0.043700
     27 H4          0.1240    1.7760   -0.1540 hc        1 2VZ      0.043700
     28 H5          2.2630    1.4020    1.2240 hc        1 2VZ      0.041200
     29 H6          0.7380    1.6390    2.1680 hc        1 2VZ      0.041200
     30 H7          3.0980    0.5080    3.3630 ha        1 2VZ      0.122000
     31 H8          4.7360   -1.9750    4.4940 hc        1 2VZ      0.037367
     32 H9          3.9960   -0.5610    5.3520 hc        1 2VZ      0.037367
     33 H10         3.5090   -2.2500    5.7980 hc        1 2VZ      0.037367
     34 H11         2.0900   -3.5890    4.2740 ha        1 2VZ      0.125000
     35 H12         0.3240   -3.5430    2.5480 ha        1 2VZ      0.136000
     36 H13        -0.4000   -3.5890    0.6630 ha        1 2VZ      0.126000
     37 H14        -4.0020   -2.6780   -0.3190 hc        1 2VZ      0.029367
     38 H15        -3.0920   -1.4000    0.5870 hc        1 2VZ      0.029367
     39 H16        -3.3430   -1.2430   -1.2020 hc        1 2VZ      0.029367
     40 H17        -2.6270   -3.5630   -2.4120 ha        1 2VZ      0.122000
     41 H18         0.3340   -3.9450   -1.5750 ha        1 2VZ      0.115000
     42 H19         0.4860   -5.6910   -3.1950 ha        1 2VZ      0.182000
     43 H20        -2.9580   -5.8180   -2.0760 hc        1 2VZ      0.021700
     44 H21        -3.5590   -5.0700   -3.6170 hc        1 2VZ      0.021700
     45 H22        -3.4820   -6.8680   -3.4550 hc        1 2VZ      0.021700
     46 H23        -2.1280   -7.0180   -5.4530 ha        1 2VZ      0.102000
@<TRIPOS>BOND
     1    1    2 1   
     2    1   11 1   
     3    1   24 1   
     4    1   25 1   
     5    2    3 1   
     6    2   26 1   
     7    2   27 1   
     8    3    4 1   
     9    3   28 1   
    10    3   29 1   
    11    4    5 ar  
    12    4   10 ar  
    13    5    6 ar  
    14    5   30 1   
    15    6    7 1   
    16    6    8 ar  
    17    7   31 1   
    18    7   32 1   
    19    7   33 1   
    20    8    9 ar  
    21    8   34 1   
    22    9   10 ar  
    23    9   35 1   
    24   10   11 1   
    25   11   12 2   
    26   12   13 1   
    27   12   36 1   
    28   13   14 1   
    29   13   15 2   
    30   14   37 1   
    31   14   38 1   
    32   14   39 1   
    33   15   16 1   
    34   15   40 1   
    35   16   17 2   
    36   16   41 1   
    37   17   18 1   
    38   17   42 1   
    39   18   19 1   
    40   18   20 2   
    41   19   43 1   
    42   19   44 1   
    43   19   45 1   
    44   20   21 1   
    45   20   46 1   
    46   21   22 1   
    47   21   23 1   
@<TRIPOS>SUBSTRUCTURE
     1 2VZ         1 TEMP              0 ****  ****    0 ROOT
