@<TRIPOS>MOLECULE
2VZ
   46    47     1     0     0
SMALL
bcc


@<TRIPOS>ATOM
      1 C2'        -0.0720    0.1240    0.1860 c3        1 2VZ     -0.033200
      2 C1'         1.4220    0.3690    0.2340 c3        1 2VZ     -0.073400
      3 C18         1.9430    0.2720    1.6510 c3        1 2VZ     -0.031100
      4 C5          1.4110   -0.9050    2.3920 ca        1 2VZ     -0.070300
      5 C4          2.0580   -1.2890    3.5700 ca        1 2VZ     -0.134000
      6 C3          1.5870   -2.3550    4.3400 ca        1 2VZ     -0.091300
      7 C6'         2.2750   -2.7470    5.5910 c3        1 2VZ     -0.045800
      8 C2          0.4420   -3.0370    3.9160 ca        1 2VZ     -0.134000
      9 C1         -0.2060   -2.6650    2.7440 ca        1 2VZ     -0.124000
     10 C6          0.2700   -1.6070    1.9530 ca        1 2VZ     -0.018800
     11 C7         -0.4030   -1.2330    0.7090 ce        1 2VZ     -0.103400
     12 C8         -1.2370   -2.0750    0.0630 cf        1 2VZ     -0.059000
     13 C9         -2.0010   -1.7870   -1.1390 cf        1 2VZ     -0.179200
     14 C19        -2.8300   -0.5540   -1.1580 c3        1 2VZ     -0.038900
     15 C10        -2.0250   -2.6300   -2.1980 ce        1 2VZ     -0.044000
     16 C11        -1.2840   -3.8580   -2.3070 ce        1 2VZ     -0.250000
     17 C12        -1.3870   -4.6590   -3.3900 cf        1 2VZ     -0.017000
     18 C13        -0.6720   -5.9070   -3.5680 cf        1 2VZ     -0.164200
     19 C20         0.3050   -6.2950   -2.5160 c3        1 2VZ     -0.046900
     20 C14        -0.8760   -6.6950   -4.6430 ce        1 2VZ     -0.133200
     21 C15        -1.8630   -6.4860   -5.7710 c         1 2VZ      0.889800
     22 O1         -2.1440   -5.3160   -6.1590 o         1 2VZ     -0.828800
     23 O2         -2.3500   -7.5330   -6.2860 o         1 2VZ     -0.828800
     24 H1         -0.4280    0.2310   -0.8740 hc        1 2VZ      0.048200
     25 H2         -0.6040    0.8990    0.8020 hc        1 2VZ      0.048200
     26 H3          1.9420   -0.3860   -0.4120 hc        1 2VZ      0.042700
     27 H4          1.6510    1.3850   -0.1800 hc        1 2VZ      0.042700
     28 H5          1.6540    1.2000    2.2180 hc        1 2VZ      0.040700
     29 H6          3.0650    0.2330    1.6340 hc        1 2VZ      0.040700
     30 H7          2.9560   -0.7400    3.8950 ha        1 2VZ      0.121000
     31 H8          2.2450   -3.8560    5.7290 hc        1 2VZ      0.037033
     32 H9          1.7710   -2.2730    6.4700 hc        1 2VZ      0.037033
     33 H10         3.3440   -2.4210    5.5820 hc        1 2VZ      0.037033
     34 H11         0.0530   -3.8750    4.5140 ha        1 2VZ      0.124000
     35 H12        -1.1120   -3.2120    2.4400 ha        1 2VZ      0.136000
     36 H13        -1.3780   -3.1060    0.4400 ha        1 2VZ      0.123000
     37 H14        -2.7240    0.0210   -0.2060 hc        1 2VZ      0.030033
     38 H15        -2.5300    0.1110   -2.0060 hc        1 2VZ      0.030033
     39 H16        -3.9090   -0.8170   -1.2910 hc        1 2VZ      0.030033
     40 H17        -2.6560   -2.3680   -3.0690 ha        1 2VZ      0.124000
     41 H18        -0.6230   -4.1170   -1.4650 ha        1 2VZ      0.113000
     42 H19        -2.0460   -4.3820   -4.2430 ha        1 2VZ      0.183000
     43 H20        -0.2140   -6.4400   -1.5360 hc        1 2VZ      0.022700
     44 H21         1.0760   -5.4950   -2.3850 hc        1 2VZ      0.022700
     45 H22         0.8280   -7.2470   -2.7780 hc        1 2VZ      0.022700
     46 H23        -0.3080   -7.6370   -4.7410 ha        1 2VZ      0.104000
@<TRIPOS>BOND
     1    1    2 1   
     2    1   11 1   
     3    1   24 1   
     4    1   25 1   
     5    2    3 1   
     6    2   26 1   
     7    2   27 1   
     8    3    4 1   
     9    3   28 1   
    10    3   29 1   
    11    4    5 ar  
    12    4   10 ar  
    13    5    6 ar  
    14    5   30 1   
    15    6    7 1   
    16    6    8 ar  
    17    7   31 1   
    18    7   32 1   
    19    7   33 1   
    20    8    9 ar  
    21    8   34 1   
    22    9   10 ar  
    23    9   35 1   
    24   10   11 1   
    25   11   12 2   
    26   12   13 1   
    27   12   36 1   
    28   13   14 1   
    29   13   15 2   
    30   14   37 1   
    31   14   38 1   
    32   14   39 1   
    33   15   16 1   
    34   15   40 1   
    35   16   17 2   
    36   16   41 1   
    37   17   18 1   
    38   17   42 1   
    39   18   19 1   
    40   18   20 2   
    41   19   43 1   
    42   19   44 1   
    43   19   45 1   
    44   20   21 1   
    45   20   46 1   
    46   21   22 1   
    47   21   23 1   
@<TRIPOS>SUBSTRUCTURE
     1 2VZ         1 TEMP              0 ****  ****    0 ROOT
