@<TRIPOS>MOLECULE
2W0
   46    47     1     0     0
SMALL
bcc


@<TRIPOS>ATOM
      1 C5'         0.5600   -1.3420    0.9960 c3        1 2W0     -0.048800
      2 C4          1.9710   -1.2430    0.5530 ca        1 2W0     -0.086300
      3 C3          2.9810   -1.8010    1.3430 ca        1 2W0     -0.138000
      4 C2          4.3090   -1.7270    0.9360 ca        1 2W0     -0.134000
      5 C1          4.6380   -1.0890   -0.2560 ca        1 2W0     -0.129000
      6 C6          3.6460   -0.5050   -1.0570 ca        1 2W0     -0.018800
      7 C5          2.2990   -0.5940   -0.6510 ca        1 2W0     -0.067300
      8 C18         1.1940   -0.0490   -1.4880 c3        1 2W0     -0.032100
      9 C1'         1.6580    0.8790   -2.5890 c3        1 2W0     -0.072400
     10 C2'         2.8910    0.3400   -3.2830 c3        1 2W0     -0.036200
     11 C7          4.0040    0.1730   -2.3040 ce        1 2W0     -0.093400
     12 C8          5.2450    0.6450   -2.5390 cf        1 2W0     -0.072000
     13 C9          5.6940    1.2880   -3.7690 cf        1 2W0     -0.155200
     14 C19         5.7420    0.4290   -4.9800 c3        1 2W0     -0.043900
     15 C10         6.1170    2.5690   -3.8060 ce        1 2W0     -0.070000
     16 C11         6.1200    3.4600   -2.6720 ce        1 2W0     -0.206000
     17 C12         6.6860    4.6810   -2.6470 cf        1 2W0     -0.053000
     18 C13         7.4420    5.3340   -3.7030 cf        1 2W0     -0.163200
     19 C20         7.1740    6.7900   -3.8460 c3        1 2W0     -0.047900
     20 C14         8.3400    4.6850   -4.4650 ce        1 2W0     -0.143200
     21 C15         9.1340    5.2700   -5.6120 c         1 2W0      0.894800
     22 O2          9.7870    6.3380   -5.4400 o         1 2W0     -0.832300
     23 O1          9.1110    4.6200   -6.6970 o         1 2W0     -0.832300
     24 H1          0.4620   -1.9970    1.8970 hc        1 2W0      0.038033
     25 H2          0.1630   -0.3280    1.2560 hc        1 2W0      0.038033
     26 H3         -0.0770   -1.7680    0.1800 hc        1 2W0      0.038033
     27 H4          2.7220   -2.3040    2.2870 ha        1 2W0      0.121000
     28 H5          5.1000   -2.1750    1.5540 ha        1 2W0      0.124000
     29 H6          5.6910   -1.0540   -0.5740 ha        1 2W0      0.136000
     30 H7          0.4620    0.4990   -0.8350 hc        1 2W0      0.041700
     31 H8          0.6420   -0.9190   -1.9420 hc        1 2W0      0.041700
     32 H9          1.8890    1.8890   -2.1590 hc        1 2W0      0.043200
     33 H10         0.8330    1.0120   -3.3360 hc        1 2W0      0.043200
     34 H11         3.1940    1.0440   -4.1030 hc        1 2W0      0.052700
     35 H12         2.6600   -0.6530   -3.7560 hc        1 2W0      0.052700
     36 H13         6.0270    0.5730   -1.7620 ha        1 2W0      0.122000
     37 H14         6.6030   -0.2820   -4.9050 hc        1 2W0      0.036367
     38 H15         4.8040   -0.1710   -5.0800 hc        1 2W0      0.036367
     39 H16         5.8770    1.0430   -5.9040 hc        1 2W0      0.036367
     40 H17         6.4820    2.9960   -4.7620 ha        1 2W0      0.156000
     41 H18         5.5910    3.0950   -1.7740 ha        1 2W0      0.106000
     42 H19         6.5690    5.2920   -1.7310 ha        1 2W0      0.101000
     43 H20         7.9040    7.2500   -4.5620 hc        1 2W0      0.037033
     44 H21         6.1360    6.9580   -4.2250 hc        1 2W0      0.037033
     45 H22         7.2720    7.3040   -2.8570 hc        1 2W0      0.037033
     46 H23         8.5380    3.6120   -4.2990 ha        1 2W0      0.104000
@<TRIPOS>BOND
     1    1    2 1   
     2    1   24 1   
     3    1   25 1   
     4    1   26 1   
     5    2    3 ar  
     6    2    7 ar  
     7    3    4 ar  
     8    3   27 1   
     9    4    5 ar  
    10    4   28 1   
    11    5    6 ar  
    12    5   29 1   
    13    6    7 ar  
    14    6   11 1   
    15    7    8 1   
    16    8    9 1   
    17    8   30 1   
    18    8   31 1   
    19    9   10 1   
    20    9   32 1   
    21    9   33 1   
    22   10   11 1   
    23   10   34 1   
    24   10   35 1   
    25   11   12 2   
    26   12   13 1   
    27   12   36 1   
    28   13   14 1   
    29   13   15 2   
    30   14   37 1   
    31   14   38 1   
    32   14   39 1   
    33   15   16 1   
    34   15   40 1   
    35   16   17 2   
    36   16   41 1   
    37   17   18 1   
    38   17   42 1   
    39   18   19 1   
    40   18   20 2   
    41   19   43 1   
    42   19   44 1   
    43   19   45 1   
    44   20   21 1   
    45   20   46 1   
    46   21   22 1   
    47   21   23 1   
@<TRIPOS>SUBSTRUCTURE
     1 2W0         1 TEMP              0 ****  ****    0 ROOT
