@<TRIPOS>MOLECULE
2W0
   46    47     1     0     0
SMALL
bcc


@<TRIPOS>ATOM
      1 C5'        -0.0850   -0.6580    0.0270 c3        1 2W0     -0.047800
      2 C4          1.3890   -0.4960    0.0000 ca        1 2W0     -0.086300
      3 C3          2.1010   -0.4870    1.2030 ca        1 2W0     -0.140000
      4 C2          3.4860   -0.3460    1.1940 ca        1 2W0     -0.133000
      5 C1          4.1650   -0.2060   -0.0120 ca        1 2W0     -0.130000
      6 C6          3.4710   -0.1930   -1.2320 ca        1 2W0     -0.014800
      7 C5          2.0700   -0.3510   -1.2220 ca        1 2W0     -0.069300
      8 C18         1.2830   -0.4070   -2.4850 c3        1 2W0     -0.031100
      9 C1'         2.0500    0.0490   -3.7070 c3        1 2W0     -0.073400
     10 C2'         3.4620   -0.4990   -3.7080 c3        1 2W0     -0.033200
     11 C7          4.1950   -0.0360   -2.4940 ce        1 2W0     -0.104400
     12 C8          5.4210    0.5250   -2.5540 cf        1 2W0     -0.059000
     13 C9          6.2500    0.6720   -3.7370 cf        1 2W0     -0.179200
     14 C19         6.5000   -0.5370   -4.5650 c3        1 2W0     -0.038900
     15 C10         6.8410    1.8450   -4.0640 ce        1 2W0     -0.044000
     16 C11         6.6970    3.0830   -3.3450 ce        1 2W0     -0.250000
     17 C12         7.3400    4.2080   -3.7250 cf        1 2W0     -0.017000
     18 C13         7.2410    5.4870   -3.0510 cf        1 2W0     -0.164200
     19 C20         6.3040    5.5870   -1.9010 c3        1 2W0     -0.046900
     20 C14         7.9660    6.5540   -3.4430 ce        1 2W0     -0.133200
     21 C15         9.0000    6.6170   -4.5460 c         1 2W0      0.889800
     22 O2          9.9630    7.4170   -4.3620 o         1 2W0     -0.828800
     23 O1          8.8640    5.9080   -5.5840 o         1 2W0     -0.828800
     24 H1         -0.4490   -0.8910    1.0580 hc        1 2W0      0.037367
     25 H2         -0.4000   -1.4880   -0.6540 hc        1 2W0      0.037367
     26 H3         -0.5840    0.2830   -0.3170 hc        1 2W0      0.037367
     27 H4          1.5650   -0.5950    2.1570 ha        1 2W0      0.121000
     28 H5          4.0450   -0.3470    2.1410 ha        1 2W0      0.124000
     29 H6          5.2610   -0.1120   -0.0030 ha        1 2W0      0.136000
     30 H7          0.3580    0.2230   -2.3800 hc        1 2W0      0.041700
     31 H8          0.9410   -1.4700   -2.6340 hc        1 2W0      0.041700
     32 H9          2.0890    1.1700   -3.7310 hc        1 2W0      0.042700
     33 H10         1.5130   -0.2900   -4.6300 hc        1 2W0      0.042700
     34 H11         3.4360   -1.6210   -3.7220 hc        1 2W0      0.048200
     35 H12         3.9890   -0.1590   -4.6390 hc        1 2W0      0.048200
     36 H13         5.8790    0.9410   -1.6360 ha        1 2W0      0.123000
     37 H14         6.1760   -0.3660   -5.6220 hc        1 2W0      0.029700
     38 H15         5.9480   -1.4230   -4.1660 hc        1 2W0      0.029700
     39 H16         7.5920   -0.7790   -4.5740 hc        1 2W0      0.029700
     40 H17         7.4890    1.8810   -4.9600 ha        1 2W0      0.124000
     41 H18         6.0310    3.0740   -2.4670 ha        1 2W0      0.113000
     42 H19         7.9990    4.2120   -4.6220 ha        1 2W0      0.183000
     43 H20         6.2750    6.6240   -1.4880 hc        1 2W0      0.022700
     44 H21         5.2680    5.3070   -2.2170 hc        1 2W0      0.022700
     45 H22         6.6170    4.8930   -1.0810 hc        1 2W0      0.022700
     46 H23         7.8590    7.5110   -2.9030 ha        1 2W0      0.104000
@<TRIPOS>BOND
     1    1    2 1   
     2    1   24 1   
     3    1   25 1   
     4    1   26 1   
     5    2    3 ar  
     6    2    7 ar  
     7    3    4 ar  
     8    3   27 1   
     9    4    5 ar  
    10    4   28 1   
    11    5    6 ar  
    12    5   29 1   
    13    6    7 ar  
    14    6   11 1   
    15    7    8 1   
    16    8    9 1   
    17    8   30 1   
    18    8   31 1   
    19    9   10 1   
    20    9   32 1   
    21    9   33 1   
    22   10   11 1   
    23   10   34 1   
    24   10   35 1   
    25   11   12 2   
    26   12   13 1   
    27   12   36 1   
    28   13   14 1   
    29   13   15 2   
    30   14   37 1   
    31   14   38 1   
    32   14   39 1   
    33   15   16 1   
    34   15   40 1   
    35   16   17 2   
    36   16   41 1   
    37   17   18 1   
    38   17   42 1   
    39   18   19 1   
    40   18   20 2   
    41   19   43 1   
    42   19   44 1   
    43   19   45 1   
    44   20   21 1   
    45   20   46 1   
    46   21   22 1   
    47   21   23 1   
@<TRIPOS>SUBSTRUCTURE
     1 2W0         1 TEMP              0 ****  ****    0 ROOT
