@<TRIPOS>MOLECULE
2W1
   51    55     1     0     0
SMALL
bcc


@<TRIPOS>ATOM
      1 O01         0.1410   -0.1800   -0.0090 o         1 2W1     -0.532100
      2 C02         1.3780   -0.1240    0.0080 c         1 2W1      0.538400
      3 C03         2.0880   -0.0110    1.3140 cc        1 2W1      0.329800
      4 N04         1.3750    0.3190    2.4920 na        1 2W1     -0.249300
      5 C05         2.2970    0.2960    3.5340 ca        1 2W1     -0.061200
      6 C06         2.1860    0.5360    4.9120 ca        1 2W1     -0.137000
      7 C07         3.3390    0.4310    5.6700 ca        1 2W1     -0.102000
      8 C08         4.5820    0.1000    5.0930 ca        1 2W1     -0.156000
      9 C09         4.7190   -0.1390    3.7380 ca        1 2W1     -0.059000
     10 C10         3.5750   -0.0450    2.9270 ca        1 2W1      0.050400
     11 N11         3.4020   -0.2280    1.5460 nd        1 2W1     -0.522100
     12 C12         2.1920   -0.1940   -1.2170 ca        1 2W1     -0.167600
     13 C13         3.3440    0.5830   -1.3870 ca        1 2W1     -0.057000
     14 C14         4.0810    0.4970   -2.5660 ca        1 2W1     -0.147000
     15 C15         3.6460   -0.3690   -3.5780 ca        1 2W1      0.142100
     16 O16         4.3450   -0.3070   -4.7850 os        1 2W1     -0.375400
     17 C17         4.8270   -1.4930   -5.3320 ca        1 2W1      0.619600
     18 N18         4.8470   -2.6330   -4.5980 nb        1 2W1     -0.707000
     19 C19         5.3750   -3.7230   -5.1850 ca        1 2W1      0.424200
     20 C20         5.8930   -3.7300   -6.4900 ca        1 2W1     -0.272300
     21 C21         5.8590   -2.5460   -7.2270 ca        1 2W1     -0.070000
     22 C22         5.3180   -1.3850   -6.6650 ca        1 2W1     -0.190600
     23 C23         5.2630   -0.1000   -7.4190 c3        1 2W1     -0.014400
     24 C24         4.4310   -0.2400   -8.6900 c3        1 2W1     -0.106900
     25 C25         4.4570    1.0550   -9.4830 c3        1 2W1      0.126400
     26 O26         5.7850    1.4720   -9.7810 os        1 2W1     -0.416600
     27 C27         6.5830    1.6520   -8.6160 c3        1 2W1      0.126400
     28 C28         6.6630    0.3880   -7.7790 c3        1 2W1     -0.106900
     29 C29         2.4930   -1.1480   -3.4280 ca        1 2W1     -0.147000
     30 C30         1.7680   -1.0500   -2.2440 ca        1 2W1     -0.057000
     31 H1          0.4000    0.4540    2.5520 hn        1 2W1      0.321700
     32 H2          1.2200    0.7940    5.3670 ha        1 2W1      0.139000
     33 H3          3.2900    0.6110    6.7550 ha        1 2W1      0.135000
     34 H4          5.4650    0.0320    5.7480 ha        1 2W1      0.136000
     35 H5          5.6920   -0.3970    3.2940 ha        1 2W1      0.150000
     36 H7          3.6800    1.2700   -0.5940 ha        1 2W1      0.152500
     37 H8          4.9880    1.1010   -2.7110 ha        1 2W1      0.153000
     38 H9          5.3800   -4.6350   -4.5610 h4        1 2W1      0.028100
     39 H10         6.3140   -4.6500   -6.9160 ha        1 2W1      0.148000
     40 H11         6.2560   -2.5190   -8.2540 ha        1 2W1      0.146000
     41 H12         4.7770    0.6870   -6.7710 hc        1 2W1      0.076700
     42 H13         3.3730   -0.4930   -8.4270 hc        1 2W1      0.052950
     43 H14         4.8410   -1.0710   -9.3190 hc        1 2W1      0.052950
     44 H15         3.9830    0.9200  -10.4910 h1        1 2W1      0.048700
     45 H16         3.9280    1.8700   -8.9200 h1        1 2W1      0.048700
     46 H17         6.1680    2.5000   -8.0070 h1        1 2W1      0.048700
     47 H18         7.5920    1.9330   -9.0200 h1        1 2W1      0.048700
     48 H19         7.2460    0.5960   -6.8460 hc        1 2W1      0.052950
     49 H20         7.2030   -0.4080   -8.3550 hc        1 2W1      0.052950
     50 H21         2.1710   -1.8280   -4.2290 ha        1 2W1      0.153000
     51 H22         0.8490   -1.6440   -2.1090 ha        1 2W1      0.152500
@<TRIPOS>BOND
     1    1    2 2   
     2    2    3 1   
     3    2   12 1   
     4    3    4 1   
     5    3   11 2   
     6    4    5 1   
     7    4   31 1   
     8    5    6 ar  
     9    5   10 ar  
    10    6    7 ar  
    11    6   32 1   
    12    7    8 ar  
    13    7   33 1   
    14    8    9 ar  
    15    8   34 1   
    16    9   10 ar  
    17    9   35 1   
    18   10   11 1   
    19   12   13 ar  
    20   12   30 ar  
    21   13   14 ar  
    22   13   36 1   
    23   14   15 ar  
    24   14   37 1   
    25   15   16 1   
    26   15   29 ar  
    27   16   17 1   
    28   17   18 ar  
    29   17   22 ar  
    30   18   19 ar  
    31   19   20 ar  
    32   19   38 1   
    33   20   21 ar  
    34   20   39 1   
    35   21   22 ar  
    36   21   40 1   
    37   22   23 1   
    38   23   24 1   
    39   23   28 1   
    40   23   41 1   
    41   24   25 1   
    42   24   42 1   
    43   24   43 1   
    44   25   26 1   
    45   25   44 1   
    46   25   45 1   
    47   26   27 1   
    48   27   28 1   
    49   27   46 1   
    50   27   47 1   
    51   28   48 1   
    52   28   49 1   
    53   29   30 ar  
    54   29   50 1   
    55   30   51 1   
@<TRIPOS>SUBSTRUCTURE
     1 2W1         1 TEMP              0 ****  ****    0 ROOT
