@<TRIPOS>MOLECULE
2W1
   51    55     1     0     0
SMALL
bcc


@<TRIPOS>ATOM
      1 O01         0.3690    1.3270    0.0340 o         1 2W1     -0.532100
      2 C02         1.4680    0.7580   -0.0070 c         1 2W1      0.538400
      3 C03         2.1360    0.3630    1.2660 cc        1 2W1      0.329800
      4 N04         1.6850    0.8830    2.5040 na        1 2W1     -0.249300
      5 C05         2.4660    0.2920    3.4910 ca        1 2W1     -0.061200
      6 C06         2.4890    0.4110    4.8900 ca        1 2W1     -0.137000
      7 C07         3.4290   -0.3370    5.5760 ca        1 2W1     -0.102000
      8 C08         4.3360   -1.1870    4.9100 ca        1 2W1     -0.157000
      9 C09         4.3360   -1.3210    3.5330 ca        1 2W1     -0.059000
     10 C10         3.3980   -0.5810    2.7920 ca        1 2W1      0.050400
     11 N11         3.1600   -0.5090    1.4110 nd        1 2W1     -0.521100
     12 C12         2.1420    0.4260   -1.2730 ca        1 2W1     -0.168600
     13 C13         3.5290    0.5310   -1.4270 ca        1 2W1     -0.056500
     14 C14         4.1240    0.2290   -2.6510 ca        1 2W1     -0.148500
     15 C15         3.3180   -0.1850   -3.7160 ca        1 2W1      0.143100
     16 O16         3.8270   -0.3730   -5.0020 os        1 2W1     -0.375400
     17 C17         4.8780   -1.2700   -5.1720 ca        1 2W1      0.617600
     18 N18         5.1990   -2.1480   -4.1880 nb        1 2W1     -0.705000
     19 C19         6.1910   -3.0170   -4.4520 ca        1 2W1      0.424200
     20 C20         6.8900   -3.0550   -5.6690 ca        1 2W1     -0.272300
     21 C21         6.5440   -2.1410   -6.6650 ca        1 2W1     -0.071000
     22 C22         5.5200   -1.2130   -6.4410 ca        1 2W1     -0.190600
     23 C23         5.1200   -0.2210   -7.4790 c3        1 2W1     -0.014400
     24 C24         4.5990   -0.9150   -8.7330 c3        1 2W1     -0.106400
     25 C25         4.2740    0.1080   -9.8070 c3        1 2W1      0.126400
     26 O26         5.3890    0.9420  -10.1050 os        1 2W1     -0.416600
     27 C27         5.8790    1.6390   -8.9650 c3        1 2W1      0.126400
     28 C28         6.2850    0.6920   -7.8500 c3        1 2W1     -0.106400
     29 C29         1.9260   -0.2990   -3.5790 ca        1 2W1     -0.148500
     30 C30         1.3460    0.0210   -2.3570 ca        1 2W1     -0.056500
     31 H1          0.9110    1.4820    2.6240 hn        1 2W1      0.321700
     32 H2          1.7860    1.0710    5.4140 ha        1 2W1      0.139000
     33 H3          3.4750   -0.2710    6.6740 ha        1 2W1      0.135000
     34 H4          5.0610   -1.7580    5.5100 ha        1 2W1      0.135000
     35 H5          5.0450   -1.9860    3.0190 ha        1 2W1      0.150000
     36 H7          4.1630    0.8610   -0.5900 ha        1 2W1      0.152000
     37 H8          5.2140    0.3030   -2.7750 ha        1 2W1      0.153000
     38 H9          6.4280   -3.7190   -3.6320 h4        1 2W1      0.029100
     39 H10         7.6900   -3.7880   -5.8280 ha        1 2W1      0.148000
     40 H11         7.0740   -2.1440   -7.6300 ha        1 2W1      0.146000
     41 H12         4.2900    0.4260   -7.0700 hc        1 2W1      0.076700
     42 H13         5.3740   -1.6280   -9.1180 hc        1 2W1      0.052950
     43 H14         3.6780   -1.5030   -8.4890 hc        1 2W1      0.052950
     44 H15         3.4050    0.7460   -9.4920 h1        1 2W1      0.048700
     45 H16         4.0420   -0.3920  -10.7850 h1        1 2W1      0.048700
     46 H17         5.0960    2.3590   -8.6030 h1        1 2W1      0.048700
     47 H18         6.7650    2.2060   -9.3550 h1        1 2W1      0.048700
     48 H19         7.1570    0.0730   -8.1840 hc        1 2W1      0.052950
     49 H20         6.6040    1.2860   -6.9560 hc        1 2W1      0.052950
     50 H21         1.3140   -0.6240   -4.4320 ha        1 2W1      0.153000
     51 H22         0.2530   -0.0420   -2.2310 ha        1 2W1      0.152000
@<TRIPOS>BOND
     1    1    2 2   
     2    2    3 1   
     3    2   12 1   
     4    3    4 1   
     5    3   11 2   
     6    4    5 1   
     7    4   31 1   
     8    5    6 ar  
     9    5   10 ar  
    10    6    7 ar  
    11    6   32 1   
    12    7    8 ar  
    13    7   33 1   
    14    8    9 ar  
    15    8   34 1   
    16    9   10 ar  
    17    9   35 1   
    18   10   11 1   
    19   12   13 ar  
    20   12   30 ar  
    21   13   14 ar  
    22   13   36 1   
    23   14   15 ar  
    24   14   37 1   
    25   15   16 1   
    26   15   29 ar  
    27   16   17 1   
    28   17   18 ar  
    29   17   22 ar  
    30   18   19 ar  
    31   19   20 ar  
    32   19   38 1   
    33   20   21 ar  
    34   20   39 1   
    35   21   22 ar  
    36   21   40 1   
    37   22   23 1   
    38   23   24 1   
    39   23   28 1   
    40   23   41 1   
    41   24   25 1   
    42   24   42 1   
    43   24   43 1   
    44   25   26 1   
    45   25   44 1   
    46   25   45 1   
    47   26   27 1   
    48   27   28 1   
    49   27   46 1   
    50   27   47 1   
    51   28   48 1   
    52   28   49 1   
    53   29   30 ar  
    54   29   50 1   
    55   30   51 1   
@<TRIPOS>SUBSTRUCTURE
     1 2W1         1 TEMP              0 ****  ****    0 ROOT
