@<TRIPOS>MOLECULE
2W2
   38    36     1     0     0
SMALL
bcc


@<TRIPOS>ATOM
      1 OXT        -0.1190    0.1300   -0.4970 o         1 2W2     -0.589500
      2 CAQ         3.7970    3.2780   -4.6210 c2        1 2W2      0.319000
      3 CAM         4.3160    2.5640   -2.2120 c3        1 2W2     -0.268000
      4 CAU         3.4310    1.9950   -0.9990 c3        1 2W2     -0.020000
      5 OAC         4.9100    3.3680   -5.2170 o         1 2W2     -0.528000
      6 OAF         2.7610    3.9320   -4.8880 o         1 2W2     -0.528000
      7 CAS         4.1880    2.6160    0.2360 c2        1 2W2      0.334000
      8 OAH         3.6780    3.6480    0.7470 o         1 2W2     -0.566500
      9 OAE         5.2770    2.0930    0.5950 o         1 2W2     -0.566500
     10 N           3.3580    0.5780   -1.0290 n3        1 2W2     -0.315000
     11 CA          2.1130   -0.0600   -1.4210 c3        1 2W2     -0.081000
     12 C           1.0730   -0.2250   -0.2620 c2        1 2W2      0.317000
     13 O           1.4510   -0.7300    0.8330 o         1 2W2     -0.589500
     14 CB          2.3400   -1.4710   -1.9940 c3        1 2W2     -0.145000
     15 CG          3.0490   -1.5000   -3.3310 c3        1 2W2     -0.149000
     16 CD          3.1060   -2.9380   -3.8800 c3        1 2W2     -0.004000
     17 NE          3.7660   -3.0150   -5.1420 n2        1 2W2     -0.499000
     18 CZ          3.8780   -4.2160   -5.7560 c2        1 2W2      0.114000
     19 NH2         4.6050   -4.1470   -7.0610 n3        1 2W2     -0.356000
     20 NH1         3.4230   -5.4100   -5.3400 n2        1 2W2     -0.530000
     21 H2          1.4100    2.3770   -3.5040 ha        1 2W2      0.009500
     22 H3          3.5560    1.2040   -3.7540 ha        1 2W2      0.170000
     23 H4          1.5330    2.8400   -3.0200 ha        1 2W2      0.009500
     24 H5          5.3090    2.0410   -2.0420 hc        1 2W2      0.162500
     25 H6          4.4540    3.6630   -2.0400 hc        1 2W2      0.162500
     26 H9          2.4260    2.4920   -1.1080 h1        1 2W2      0.106000
     27 H11         3.7670    0.1520   -0.2200 hn        1 2W2      0.212000
     28 H12         1.6330    0.5740   -2.2220 h1        1 2W2      0.074000
     29 H13         1.3250   -1.9380   -2.1040 hc        1 2W2      0.077500
     30 H14         2.9080   -2.0860   -1.2490 hc        1 2W2      0.077500
     31 H15         2.5090   -0.8400   -4.0580 hc        1 2W2      0.060500
     32 H16         4.0870   -1.0950   -3.2200 hc        1 2W2      0.060500
     33 H17         2.0410   -3.3200   -3.9340 h1        1 2W2      0.019500
     34 H18         3.6150   -3.5780   -3.0960 h1        1 2W2      0.019500
     35 H19         5.4320   -3.5900   -6.9440 hn        1 2W2      0.107500
     36 H20         4.0200   -3.6540   -7.7120 hn        1 2W2      0.107500
     37 H21         3.6380   -6.1460   -5.9810 hn        1 2W2      0.055000
     38 CAK         3.8120    2.2530   -3.5000 c2        1 2W2      0.160000
@<TRIPOS>BOND
     1    1   12 1   
     2    2    5 1   
     3    2    6 1   
     4    2   38 1   
     5    3    4 1   
     6    3   24 1   
     7    3   25 1   
     8    3   38 1   
     9    4    7 1   
    10    4   10 1   
    11    4   26 1   
    12    7    8 1   
    13    7    9 1   
    14   10   11 1   
    15   10   27 1   
    16   11   12 1   
    17   11   14 1   
    18   11   28 1   
    19   12   13 1   
    20   14   15 1   
    21   14   29 1   
    22   14   30 1   
    23   15   16 1   
    24   15   31 1   
    25   15   32 1   
    26   16   17 1   
    27   16   33 1   
    28   16   34 1   
    29   17   18 1   
    30   18   19 1   
    31   18   20 1   
    32   19   35 1   
    33   19   36 1   
    34   20   37 1   
    35   21   23 1   
    36   22   38 1   
@<TRIPOS>SUBSTRUCTURE
     1 2W2         1 TEMP              0 ****  ****    0 ROOT
