@<TRIPOS>MOLECULE
2W3
   65    64     1     0     0
SMALL
bcc


@<TRIPOS>ATOM
      1 C1          1.0830    0.5400   -0.8770 c2        1 2W3     -0.094000
      2 C2          1.4680   -0.4560   -0.0730 c2        1 2W3     -0.191000
      3 C3          2.2550   -0.2910    1.1480 c2        1 2W3      0.099000
      4 N6          3.7260   -0.0620    3.5140 n2        1 2W3     -0.194000
      5 C7          3.4280    0.9940    2.7020 c2        1 2W3      0.042000
      6 C9          3.9780    2.3650    3.0530 c3        1 2W3     -0.111000
      7 C11         1.1690   -0.4730    6.7520 c2        1 2W3     -0.260000
      8 C12         2.1300   -0.5200    7.6750 c2        1 2W3     -0.163000
      9 C13         2.9060    0.6530    8.1220 c3        1 2W3     -0.210000
     10 C14         2.8110    2.5060    5.3100 c1        1 2W3     -0.048000
     11 C15         4.0400    2.6440    4.5450 c3        1 2W3     -0.204000
     12 C21         7.0350    7.6050    2.4490 ca        1 2W3     -0.208000
     13 C22         8.3050    7.9960    2.9900 ca        1 2W3      0.037000
     14 C24         7.8380   10.3200    2.4760 ca        1 2W3      0.104000
     15 C32         3.6930   -3.5800    6.0800 c2        1 2W3      0.370000
     16 C34         4.2770   -4.7390    5.4170 c2        1 2W3     -0.410000
     17 C35         4.5030   -4.6470    4.0170 c2        1 2W3      0.326000
     18 C4          2.5480   -1.4610    1.9160 c2        1 2W3     -0.163000
     19 C5          3.2850   -1.2780    3.0900 c2        1 2W3      0.003000
     20 N8          2.6990    0.9250    1.5400 n2        1 2W3     -0.152000
     21 C17         4.6760    4.0200    4.7840 c2        1 2W3      0.348000
     22 O18         5.3490    4.5880    3.8860 o         1 2W3     -0.481000
     23 N19         4.5230    4.5850    6.0110 nt        1 2W3     -0.387000
     24 C23         8.6880    9.3170    2.9980 ca        1 2W3     -0.182000
     25 C25         6.5720    9.9580    1.9370 ca        1 2W3     -0.136000
     26 C26         6.1820    8.6310    1.9250 ca        1 2W3      0.030000
     27 Cl7         5.5410   11.1360    1.3120 cl        1 2W3      0.101000
     28 Cl8         8.3390   11.9070    2.5010 cl        1 2W3      0.167000
     29 C29         3.6420   -2.4850    3.9150 c2        1 2W3      0.284000
     30 N30         3.3860   -2.4610    5.2680 ns        1 2W3     -0.280000
     31 N36         4.1840   -3.5330    3.2710 n2        1 2W3     -0.271000
     32 C38         4.6440   -5.9420    6.1170 c2        1 2W3      0.340000
     33 O39         5.2260   -6.9350    5.6980 o         1 2W3     -0.185000
     34 N40         4.2660   -6.0290    7.5820 nz        1 2W3     -0.134000
     35 H1         -1.6800    2.2320   -0.9200 ha        1 2W3      0.000000
     36 H2          1.3220    1.5980   -0.6980 ha        1 2W3      0.140000
     37 H3          1.1980   -1.5030   -0.2980 ha        1 2W3      0.147000
     38 H4         -1.0780    1.9230   -0.8840 ha        1 2W3      0.000000
     39 H5          0.4870    0.3430   -1.7820 ha        1 2W3      0.140000
     40 H6          5.0130    2.4330    2.6150 hc        1 2W3      0.132000
     41 H7          3.3570    3.1600    2.5580 hc        1 2W3      0.132000
     42 H8          0.5740   -1.3540    6.4770 ha        1 2W3      0.117000
     43 H9          2.3800   -1.4700    8.1840 ha        1 2W3      0.134000
     44 H10         0.8750    0.4590    6.2490 ha        1 2W3      0.117000
     45 H11         2.7620    1.5340    7.4440 hc        1 2W3      0.093000
     46 H12         3.9960    0.4090    8.1670 hc        1 2W3      0.093000
     47 H13         2.0200    1.8720    4.8870 ha        1 2W3      0.071000
     48 H14         2.5760    0.9490    9.1510 hc        1 2W3      0.093000
     49 H15         4.7390    1.8880    5.0430 hc        1 2W3      0.194000
     50 H16         5.6730    5.9660    2.0140 ha        1 2W3      0.177000
     51 H17         3.8990    4.1740    6.6690 hn        1 2W3      0.249500
     52 H18         8.9750    7.2180    3.3990 ha        1 2W3      0.177000
     53 H20         2.2090   -2.4500    1.5790 ha        1 2W3      0.182000
     54 H21         7.2840    5.4780    2.8290 ha        1 2W3      0.177000
     55 H22         9.6710    9.6090    3.4150 ha        1 2W3      0.198000
     56 H23         5.1990    8.3440    1.5060 ha        1 2W3      0.185000
     57 H24         2.9820   -1.6480    5.7130 hn        1 2W3      0.304000
     58 H25         4.6180   -6.9050    7.9840 hn        1 2W3      0.268333
     59 H26         4.6530   -5.2220    8.0890 hn        1 2W3      0.268333
     60 H19         5.1740   -5.5610    2.4470 ho        1 2W3      0.290000
     61 O33         3.4460   -3.5080    7.3010 o         1 2W3     -0.380000
     62 C20         6.6480    6.2860    2.4250 c2        1 2W3      0.170000
     63 H192        4.8960    5.4840    6.1960 hn        1 2W3      0.249500
     64 H403        3.2450   -5.9860    7.6760 hn        1 2W3      0.268333
     65 O37         5.0520   -5.7170    3.4080 oh        1 2W3     -0.173000
@<TRIPOS>BOND
     1    1    2 1   
     2    1   36 1   
     3    1   39 1   
     4    2    3 1   
     5    2   37 1   
     6    3   18 1   
     7    3   20 1   
     8    4    5 1   
     9    4   19 1   
    10    5    6 1   
    11    5   20 1   
    12    6   11 1   
    13    6   40 1   
    14    6   41 1   
    15    7    8 1   
    16    7   42 1   
    17    7   44 1   
    18    8    9 1   
    19    8   43 1   
    20    9   45 1   
    21    9   46 1   
    22    9   48 1   
    23   10   11 1   
    24   10   47 1   
    25   11   21 1   
    26   11   49 1   
    27   12   13 1   
    28   12   26 1   
    29   12   62 1   
    30   13   24 1   
    31   13   52 1   
    32   14   24 1   
    33   14   25 1   
    34   14   28 1   
    35   15   16 1   
    36   15   30 1   
    37   15   61 1   
    38   16   17 1   
    39   16   32 1   
    40   17   31 1   
    41   17   65 1   
    42   18   19 1   
    43   18   53 1   
    44   19   29 1   
    45   21   22 1   
    46   21   23 1   
    47   23   51 1   
    48   23   63 1   
    49   24   55 1   
    50   25   26 1   
    51   25   27 1   
    52   26   56 1   
    53   29   30 1   
    54   29   31 1   
    55   30   57 1   
    56   32   33 1   
    57   32   34 1   
    58   34   58 1   
    59   34   59 1   
    60   34   64 1   
    61   35   38 1   
    62   50   62 1   
    63   54   62 1   
    64   60   65 1   
@<TRIPOS>SUBSTRUCTURE
     1 2W3         1 TEMP              0 ****  ****    0 ROOT
