@<TRIPOS>MOLECULE
2W3
   65    65     1     0     0
SMALL
bcc


@<TRIPOS>ATOM
      1 C1          4.8860    0.0300   -0.4140 c2        1 2W3     -0.166000
      2 C2          5.5330   -0.7290    0.4620 c2        1 2W3     -0.151000
      3 C3          5.6150   -0.4820    1.9530 c3        1 2W3     -0.127000
      4 N6          3.8480   -0.6430    4.1870 n2        1 2W3     -0.008000
      5 C7          4.0940    0.5650    3.4470 c2        1 2W3     -0.024000
      6 C9          3.2930    1.7640    3.9310 c3        1 2W3     -0.106000
      7 C11         0.0070    1.0010    5.5190 c2        1 2W3     -0.210000
      8 C12         0.5780    2.1680    5.8070 c2        1 2W3     -0.179000
      9 C13         1.8120    2.3090    6.6190 c3        1 2W3     -0.139000
     10 C14         2.8550    3.1910    5.9570 c3        1 2W3     -0.148000
     11 C15         3.9010    2.4030    5.1710 c3        1 2W3     -0.111000
     12 C21         4.6510    7.9580    2.5760 ca        1 2W3     -0.207000
     13 C22         5.7320    8.4420    1.7670 ca        1 2W3      0.038000
     14 C24         5.1690   10.7310    2.3360 ca        1 2W3      0.105000
     15 C32         4.7190   -5.4340    4.4150 c2        1 2W3      0.369000
     16 C34         4.0070   -5.5350    5.6830 c2        1 2W3     -0.407000
     17 C35         3.5100   -4.3330    6.2510 c2        1 2W3      0.321000
     18 C4          5.4160   -1.7630    2.6470 c1        1 2W3     -0.040000
     19 C5          4.4970   -1.7100    3.7900 c2        1 2W3     -0.104000
     20 N8          4.8940    0.6840    2.4160 n2        1 2W3     -0.120000
     21 C17         5.0010    3.3860    4.7640 c2        1 2W3      0.326000
     22 O18         4.7650    4.3500    3.9930 o         1 2W3     -0.466000
     23 N19         6.2590    3.2130    5.2640 n         1 2W3     -0.411000
     24 C23         5.9770    9.7910    1.6550 ca        1 2W3     -0.182000
     25 C25         4.0920   10.2770    3.1470 ca        1 2W3     -0.137000
     26 C26         3.8410    8.9220    3.2620 ca        1 2W3      0.031000
     27 CL7         3.1170   11.3800    3.9690 cl        1 2W3      0.101000
     28 CL8         5.4960   12.3550    2.1730 cl        1 2W3      0.168000
     29 C29         4.3110   -3.0380    4.4880 c2        1 2W3      0.277000
     30 N30         4.8420   -4.1420    3.8540 n         1 2W3     -0.272000
     31 N36         3.6610   -3.0940    5.6630 n2        1 2W3     -0.259000
     32 C38         3.8040   -6.7850    6.3670 c2        1 2W3      0.340000
     33 O39         3.2660   -7.0000    7.4470 o         1 2W3     -0.188000
     34 N40         4.3130   -8.0370    5.6790 n4        1 2W3     -0.133000
     35 H1          4.3140    0.9340   -0.1590 ha        1 2W3      0.137500
     36 H2          2.9460    2.8230    0.2180 ha        1 2W3      0.001000
     37 H3          6.1000   -1.6280    0.1630 ha        1 2W3      0.160000
     38 H4          3.1390    2.7420    0.8620 ha        1 2W3      0.001000
     39 H5          4.8950   -0.2170   -1.4880 ha        1 2W3      0.137500
     40 H6          3.2210    2.5270    3.1070 hc        1 2W3      0.140000
     41 H7         -0.9280    0.9330    4.9460 ha        1 2W3      0.118500
     42 H8          2.2460    1.4220    4.1710 hc        1 2W3      0.140000
     43 H9          0.1280    3.1190    5.4740 ha        1 2W3      0.126000
     44 H10         0.4220    0.0380    5.8450 ha        1 2W3      0.118500
     45 H11         2.2520    1.3030    6.8530 hc        1 2W3      0.099500
     46 H12         1.5240    2.7760    7.6030 hc        1 2W3      0.099500
     47 H13         2.3640    3.9300    5.2710 hc        1 2W3      0.094500
     48 H14         3.3890    3.7780    6.7520 hc        1 2W3      0.094500
     49 H15         4.3130    1.5980    5.8420 hc        1 2W3      0.112000
     50 H16         3.5670    6.2190    3.3100 ha        1 2W3      0.179000
     51 H17         6.4570    2.5060    5.9260 hn        1 2W3      0.234500
     52 H18         6.3680    7.7130    1.2310 ha        1 2W3      0.177000
     53 H20         6.7320   -0.2410    2.1390 h1        1 2W3      0.223000
     54 H21         5.0070    5.8480    2.1790 ha        1 2W3      0.179000
     55 H22         6.8120   10.1550    1.0270 ha        1 2W3      0.198000
     56 H23         3.0040    8.5620    3.8910 ha        1 2W3      0.184000
     57 H24         5.3550   -4.0250    2.9900 hn        1 2W3      0.317000
     58 H25         4.1380   -8.8580    6.2680 hn        1 2W3      0.268333
     59 H26         3.8460   -8.1450    4.7720 hn        1 2W3      0.268333
     60 H19         2.5470   -3.5510    7.7370 ho        1 2W3      0.286000
     61 O33         5.2220   -6.3940    3.7970 o         1 2W3     -0.371000
     62 C20         4.3930    6.6130    2.6890 c2        1 2W3      0.162000
     63 H192        6.9760    3.8600    5.0390 hn        1 2W3      0.234500
     64 H403        5.3190   -7.9410    5.4900 hn        1 2W3      0.268333
     65 O37         2.8570   -4.4280    7.4270 oh        1 2W3     -0.175000
@<TRIPOS>BOND
     1    1    2 1   
     2    1   35 1   
     3    1   39 1   
     4    2    3 1   
     5    2   37 1   
     6    3   18 1   
     7    3   20 1   
     8    3   53 1   
     9    4    5 1   
    10    4   19 1   
    11    5    6 1   
    12    5   20 1   
    13    6   11 1   
    14    6   40 1   
    15    6   42 1   
    16    7    8 1   
    17    7   41 1   
    18    7   44 1   
    19    8    9 1   
    20    8   43 1   
    21    9   10 1   
    22    9   45 1   
    23    9   46 1   
    24   10   11 1   
    25   10   47 1   
    26   10   48 1   
    27   11   21 1   
    28   11   49 1   
    29   12   13 1   
    30   12   26 1   
    31   12   62 1   
    32   13   24 1   
    33   13   52 1   
    34   14   24 1   
    35   14   25 1   
    36   14   28 1   
    37   15   16 1   
    38   15   30 1   
    39   15   61 1   
    40   16   17 1   
    41   16   32 1   
    42   17   31 1   
    43   17   65 1   
    44   18   19 1   
    45   19   29 1   
    46   21   22 1   
    47   21   23 1   
    48   23   51 1   
    49   23   63 1   
    50   24   55 1   
    51   25   26 1   
    52   25   27 1   
    53   26   56 1   
    54   29   30 1   
    55   29   31 1   
    56   30   57 1   
    57   32   33 1   
    58   32   34 1   
    59   34   58 1   
    60   34   59 1   
    61   34   64 1   
    62   36   38 1   
    63   50   62 1   
    64   54   62 1   
    65   60   65 1   
@<TRIPOS>SUBSTRUCTURE
     1 2W3         1 TEMP              0 ****  ****    0 ROOT
