@<TRIPOS>MOLECULE
2W3
   65    64     1     0     0
SMALL
bcc


@<TRIPOS>ATOM
      1 C1          4.7930    0.3860   -0.4360 c2        1 2W3     -0.116000
      2 C2          4.6920   -0.6640    0.3830 c2        1 2W3     -0.175000
      3 C3          4.4600   -0.5840    1.8270 c2        1 2W3      0.087000
      4 N6          3.9920   -0.5270    4.5740 n2        1 2W3     -0.168000
      5 C7          4.3350    0.5740    3.8440 c2        1 2W3      0.048000
      6 C9          4.4320    1.8920    4.5930 c3        1 2W3     -0.098000
      7 C11         0.0050   -1.0000    6.4100 c2        1 2W3     -0.232000
      8 C12         0.8990   -0.0470    6.6440 c2        1 2W3     -0.232000
      9 C13         7.2880    3.2920    6.0280 c2        1 2W3     -0.174000
     10 C14         6.1310    3.4940    5.4040 c2        1 2W3     -0.193000
     11 C15         5.6780    2.6950    4.2250 c3        1 2W3     -0.076000
     12 C21         4.4680    8.2920    3.1890 ca        1 2W3     -0.209000
     13 C22         3.8250    8.8860    2.0540 ca        1 2W3      0.036000
     14 C24         5.3790   10.7470    2.1150 ca        1 2W3      0.101000
     15 C32         2.2490   -4.0090    6.4070 c2        1 2W3      0.370000
     16 C34         2.9660   -5.2420    6.1130 c2        1 2W3     -0.409000
     17 C35         3.9490   -5.1990    5.0880 c2        1 2W3      0.327000
     18 C4          4.1180   -1.7920    2.5080 c2        1 2W3     -0.159000
     19 C5          3.8970   -1.6970    3.8870 c2        1 2W3      0.004000
     20 N8          4.5740    0.5880    2.4920 n2        1 2W3     -0.176000
     21 C17         5.3500    3.6570    3.0800 c2        1 2W3      0.339000
     22 O18         4.6810    4.7050    3.2800 o         1 2W3     -0.487000
     23 N19         5.8200    3.3840    1.8310 n         1 2W3     -0.392000
     24 C23         4.2730   10.0810    1.5390 ca        1 2W3     -0.181000
     25 C25         6.0370   10.1740    3.2380 ca        1 2W3     -0.136000
     26 C26         5.5900    8.9740    3.7620 ca        1 2W3      0.031000
     27 CL7         7.3600   10.9490    3.9400 cl        1 2W3      0.098000
     28 CL8         5.8890   12.1930    1.4650 cl        1 2W3      0.162000
     29 C29         3.5650   -2.9390    4.6700 c2        1 2W3      0.284000
     30 N30         2.5900   -2.8680    5.6400 n         1 2W3     -0.277000
     31 N36         4.2440   -4.0610    4.3700 n2        1 2W3     -0.276000
     32 C38         2.7230   -6.4770    6.8120 c2        1 2W3      0.340000
     33 O39         3.2470   -7.5730    6.6540 o         1 2W3     -0.186000
     34 N40         1.6730   -6.4550    7.9050 n4        1 2W3     -0.133000
     35 H1          2.5820    1.8590   -2.3070 ha        1 2W3      0.000000
     36 H2          4.7110    1.4300   -0.1010 ha        1 2W3      0.133500
     37 H3          4.7740   -1.6950   -0.0050 ha        1 2W3      0.151000
     38 H4          4.9580    0.2550   -1.5170 ha        1 2W3      0.133500
     39 H5          3.0480    1.6430   -1.8650 ha        1 2W3      0.000000
     40 H6          3.5060    2.4880    4.3660 hc        1 2W3      0.130500
     41 H7          4.4430    1.6940    5.7000 hc        1 2W3      0.130500
     42 H8         -0.7190   -0.9460    5.5860 ha        1 2W3      0.119000
     43 H9          0.9750    0.8580    6.0260 ha        1 2W3      0.119000
     44 H10        -0.0860   -1.8950    7.0450 ha        1 2W3      0.119000
     45 H11         8.0110    2.5230    5.7230 ha        1 2W3      0.128500
     46 H12         1.6020   -0.0830    7.4880 ha        1 2W3      0.119000
     47 H13         5.4200    4.2740    5.7230 ha        1 2W3      0.131000
     48 H14         7.5900    3.8900    6.9000 ha        1 2W3      0.128500
     49 H15         6.5030    1.9900    3.9200 hc        1 2W3      0.120000
     50 H16         4.5050    6.6290    4.5920 ha        1 2W3      0.176000
     51 H17         6.2660    2.5230    1.6310 hn        1 2W3      0.236500
     52 H18         2.9590    8.3720    1.5990 ha        1 2W3      0.176000
     53 H20         4.0430   -2.7410    1.9600 ha        1 2W3      0.184000
     54 H21         3.1650    6.5530    3.2870 ha        1 2W3      0.176000
     55 H22         3.7680   10.5340    0.6650 ha        1 2W3      0.197000
     56 H23         6.0980    8.5240    4.6360 ha        1 2W3      0.184000
     57 H24         2.1170   -1.9980    5.8490 hn        1 2W3      0.307000
     58 H25         1.5820   -7.3860    8.3250 hn        1 2W3      0.268000
     59 H26         1.9360   -5.7660    8.6200 hn        1 2W3      0.268000
     60 H19         5.2770   -6.2140    4.1110 ho        1 2W3      0.288000
     61 O33         1.3610   -3.8900    7.2760 o         1 2W3     -0.379000
     62 C20         4.0210    7.1030    3.7180 c2        1 2W3      0.184000
     63 H192        5.5750    3.9730    1.0730 hn        1 2W3      0.236500
     64 H403        0.7730   -6.1520    7.5120 hn        1 2W3      0.268000
     65 O37         4.6170   -6.3400    4.8240 oh        1 2W3     -0.173000
@<TRIPOS>BOND
     1    1    2 1   
     2    1   36 1   
     3    1   38 1   
     4    2    3 1   
     5    2   37 1   
     6    3   18 1   
     7    3   20 1   
     8    4    5 1   
     9    4   19 1   
    10    5    6 1   
    11    5   20 1   
    12    6   11 1   
    13    6   40 1   
    14    6   41 1   
    15    7    8 1   
    16    7   42 1   
    17    7   44 1   
    18    8   43 1   
    19    8   46 1   
    20    9   10 1   
    21    9   45 1   
    22    9   48 1   
    23   10   11 1   
    24   10   47 1   
    25   11   21 1   
    26   11   49 1   
    27   12   13 1   
    28   12   26 1   
    29   12   62 1   
    30   13   24 1   
    31   13   52 1   
    32   14   24 1   
    33   14   25 1   
    34   14   28 1   
    35   15   16 1   
    36   15   30 1   
    37   15   61 1   
    38   16   17 1   
    39   16   32 1   
    40   17   31 1   
    41   17   65 1   
    42   18   19 1   
    43   18   53 1   
    44   19   29 1   
    45   21   22 1   
    46   21   23 1   
    47   23   51 1   
    48   23   63 1   
    49   24   55 1   
    50   25   26 1   
    51   25   27 1   
    52   26   56 1   
    53   29   30 1   
    54   29   31 1   
    55   30   57 1   
    56   32   33 1   
    57   32   34 1   
    58   34   58 1   
    59   34   59 1   
    60   34   64 1   
    61   35   39 1   
    62   50   62 1   
    63   54   62 1   
    64   60   65 1   
@<TRIPOS>SUBSTRUCTURE
     1 2W3         1 TEMP              0 ****  ****    0 ROOT
