@<TRIPOS>MOLECULE
2W4
   56    57     1     0     0
SMALL
bcc


@<TRIPOS>ATOM
      1 N1         -2.1480    0.4930    0.5420 n         1 2W4     -0.325900
      2 C10        -1.6060    1.6250   -0.1920 c         1 2W4      0.747500
      3 C13        -5.3770   -2.9850   -5.9540 c1        1 2W4     -0.023800
      4 C15        -3.6610   -0.9450   -2.3830 c1        1 2W4      0.175000
      5 C17        -3.9400   -1.0420   -6.3490 cc        1 2W4     -0.050000
      6 C20        -2.4740    0.9520   -7.8360 c         1 2W4      0.571500
      7 C21        -3.3540   -0.2030  -11.1320 c2        1 2W4     -0.243100
      8 C22        -3.3130   -0.1620   -9.8380 c1        1 2W4      0.083200
      9 C24        -3.9700   -1.0790   -7.7060 cd        1 2W4     -0.088000
     10 O01        -4.3620   -0.2360    7.1600 o         1 2W4     -0.601100
     11 C02        -2.8320    0.1820    8.9630 cx        1 2W4     -0.217700
     12 C03        -2.6860    1.6350    9.3390 cx        1 2W4     -0.107400
     13 C04        -3.8820    0.8630    9.8030 cx        1 2W4     -0.107400
     14 N01        -2.1390   -0.4430    6.6650 n         1 2W4     -0.482800
     15 C05        -0.7530   -0.3800    7.0580 c3        1 2W4      0.093000
     16 C06        -0.1590   -1.6910    7.5540 c3        1 2W4     -0.120100
     17 C07        -2.1140    0.1050    4.2500 c2        1 2W4     -0.087200
     18 C08        -1.9920   -0.2730    2.9700 ce        1 2W4     -0.256600
     19 C09        -1.6980    0.6750    1.9040 cc        1 2W4      0.411200
     20 N02        -0.9660    1.7940    2.0160 nd        1 2W4     -0.467300
     21 N03        -0.9670    2.4340    0.8220 ns        1 2W4     -0.267900
     22 O02        -1.7320    1.8860   -1.3870 o         1 2W4     -0.524500
     23 C11        -2.9300   -0.5250    0.0770 ce        1 2W4      0.479400
     24 C12        -6.1170   -3.9700   -6.3580 c2        1 2W4     -0.250100
     25 C14        -4.6380   -2.0010   -5.5100 ce        1 2W4     -0.154100
     26 C16        -3.2960   -0.7260   -1.1930 cg        1 2W4     -0.651200
     27 C18        -3.1790   -0.0040   -5.6750 cc        1 2W4     -0.054000
     28 C19        -2.4970    0.9260   -6.3680 cd        1 2W4     -0.253200
     29 O1         -1.8350    1.8090   -8.4650 o         1 2W4     -0.546100
     30 C23        -3.2620   -0.1080   -8.5210 cd        1 2W4     -0.192300
     31 C1         -2.4280   -0.8920    5.3250 c3        1 2W4      0.107200
     32 H1         -7.1980   -3.8630   -6.5270 ha        1 2W4      0.128500
     33 H2         -4.5120   -1.8550   -4.4130 ha        1 2W4      0.182000
     34 H3         -2.6210   -0.7700  -11.7260 ha        1 2W4      0.149000
     35 H4         -4.1200    0.3350  -11.7110 ha        1 2W4      0.149000
     36 H5         -4.5430   -1.8560   -8.2370 ha        1 2W4      0.138000
     37 H6         -2.1690   -0.5650    9.4430 hc        1 2W4      0.099700
     38 H7         -1.9010    1.9110   10.0650 hc        1 2W4      0.083450
     39 H8         -2.8160    2.4060    8.5580 hc        1 2W4      0.083450
     40 H9         -3.9670    0.5810   10.8680 hc        1 2W4      0.083450
     41 H10        -4.8670    1.0670    9.3430 hc        1 2W4      0.083450
     42 H11        -0.6390    0.4010    7.8650 h1        1 2W4      0.053700
     43 H12        -0.1580   -0.0300    6.1640 h1        1 2W4      0.053700
     44 H13         0.9160   -1.5240    7.8070 hc        1 2W4      0.044033
     45 H14        -0.2210   -2.4840    6.7720 hc        1 2W4      0.044033
     46 H15        -0.6880   -2.0550    8.4670 hc        1 2W4      0.044033
     47 H16        -2.0180    1.1620    4.5550 ha        1 2W4      0.158000
     48 H17        -2.0870   -1.3280    2.6630 ha        1 2W4      0.144000
     49 H18        -0.1340    2.9420    0.5910 hn        1 2W4      0.357500
     50 H19        -5.7070   -4.9720   -6.5530 ha        1 2W4      0.128500
     51 H20        -3.2690   -1.2240    0.8790 h4        1 2W4      0.024800
     52 H21        -3.1880   -0.0130   -4.5680 ha        1 2W4      0.165000
     53 H22        -1.9180    1.7180   -5.8680 ha        1 2W4      0.153000
     54 H23        -3.5320   -1.1390    5.2520 h1        1 2W4      0.079700
     55 H24        -1.8450   -1.8410    5.1310 h1        1 2W4      0.079700
     56 C01        -3.1790   -0.1740    7.5520 c         1 2W4      0.695100
@<TRIPOS>BOND
     1    1    2 1   
     2    1   19 1   
     3    1   23 2   
     4    2   21 1   
     5    2   22 2   
     6    3   24 2   
     7    3   25 2   
     8    4   26 3   
     9    5    9 2   
    10    5   25 1   
    11    5   27 1   
    12    6   28 1   
    13    6   29 2   
    14    6   30 1   
    15    7    8 2   
    16    7   34 1   
    17    7   35 1   
    18    8   30 2   
    19    9   30 1   
    20    9   36 1   
    21   10   56 2   
    22   11   12 1   
    23   11   13 1   
    24   11   37 1   
    25   11   56 1   
    26   12   13 1   
    27   12   38 1   
    28   12   39 1   
    29   13   40 1   
    30   13   41 1   
    31   14   15 1   
    32   14   31 1   
    33   14   56 1   
    34   15   16 1   
    35   15   42 1   
    36   15   43 1   
    37   16   44 1   
    38   16   45 1   
    39   16   46 1   
    40   17   18 2   
    41   17   31 1   
    42   17   47 1   
    43   18   19 1   
    44   18   48 1   
    45   19   20 2   
    46   20   21 1   
    47   21   49 1   
    48   23   26 1   
    49   23   51 1   
    50   24   32 1   
    51   24   50 1   
    52   25   33 1   
    53   27   28 2   
    54   27   52 1   
    55   28   53 1   
    56   31   54 1   
    57   31   55 1   
@<TRIPOS>SUBSTRUCTURE
     1 2W4         1 TEMP              0 ****  ****    0 ROOT
