@<TRIPOS>MOLECULE
2W4
   56    56     1     0     0
SMALL
bcc


@<TRIPOS>ATOM
      1 N1         -2.0860    0.7670    0.5540 n         1 2W4     -0.252000
      2 C10        -1.3920    1.8320   -0.1530 c2        1 2W4      0.338000
      3 C13        -5.4990   -2.9530   -5.6960 c1        1 2W4     -0.160000
      4 C15        -3.6550   -0.4830   -2.4300 c1        1 2W4      0.184000
      5 C17        -4.0350   -1.0900   -6.3230 ca        1 2W4     -0.072000
      6 C20        -2.6340    0.5770   -8.0830 ca        1 2W4      0.106000
      7 C21        -3.5430   -0.9460  -11.1590 c1        1 2W4     -0.210000
      8 C22        -3.4730   -0.7310   -9.9830 c1        1 2W4     -0.126000
      9 C24        -4.0960   -1.3150   -7.7000 ca        1 2W4     -0.058000
     10 O01        -4.3900    0.2790    7.2550 o         1 2W4     -0.370000
     11 C02        -2.7770    0.4380    9.0350 c3        1 2W4     -0.201000
     12 C03        -2.3130    1.8850    9.1390 c3        1 2W4     -0.182000
     13 C04        -3.8060    0.1920   10.0380 c1        1 2W4     -0.015000
     14 N01        -2.2550   -0.2610    6.6560 n         1 2W4     -0.336000
     15 C05        -0.8670   -0.4920    6.9790 c3        1 2W4     -0.027000
     16 C06        -0.5380   -1.8950    7.4690 c3        1 2W4     -0.240000
     17 C07        -2.2040    0.3540    4.2580 c2        1 2W4     -0.086000
     18 C08        -2.0940   -0.0280    2.9780 c2        1 2W4     -0.165000
     19 C09        -1.6590    0.8860    1.9300 c2        1 2W4      0.027000
     20 N02        -0.8030    1.9110    2.0750 n2        1 2W4     -0.047000
     21 N03        -0.6930    2.5540    0.8890 n         1 2W4     -0.247000
     22 O02        -1.4510    2.1170   -1.3470 o         1 2W4     -0.248000
     23 C11        -2.9630   -0.1530    0.0540 c2        1 2W4      0.318000
     24 C12        -6.2530   -3.9700   -5.9760 c2        1 2W4     -0.186000
     25 C14        -4.7470   -1.9330   -5.3760 c2        1 2W4     -0.081000
     26 C16        -3.3060   -0.3070   -1.2270 c1        1 2W4     -0.622000
     27 C18        -3.2650   -0.0200   -5.8300 ca        1 2W4     -0.072000
     28 C19        -2.5690    0.8090   -6.6970 ca        1 2W4     -0.169000
     29 O1         -1.9160    1.4420   -8.8720 oh        1 2W4     -0.250000
     30 C23        -3.4000   -0.4900   -8.5980 ca        1 2W4     -0.070000
     31 C1         -2.6730   -0.6000    5.3150 c3        1 2W4     -0.017000
     32 H1         -7.3330   -3.8690   -6.1580 ha        1 2W4      0.126500
     33 H2         -4.6170   -1.6540   -4.3070 ha        1 2W4      0.175000
     34 H3         -2.0440    1.1850   -9.7980 ho        1 2W4      0.226000
     35 H4         -3.6060   -1.1380  -12.1990 ha        1 2W4      0.225000
     36 H5         -4.6980   -2.1500   -8.0910 ha        1 2W4      0.144000
     37 H6         -1.9240   -0.2460    9.3430 hc        1 2W4      0.156000
     38 H7         -1.4230    2.0530    8.4890 hc        1 2W4      0.095000
     39 H8         -3.1290    2.5750    8.8130 hc        1 2W4      0.095000
     40 H9         -2.0440    2.1180   10.1980 hc        1 2W4      0.095000
     41 H10        -4.7600   -0.2300    9.6840 ha        1 2W4      0.069000
     42 H11        -0.5390    0.2550    7.7580 h1        1 2W4      0.093500
     43 H12        -0.2610   -0.2870    6.0480 h1        1 2W4      0.093500
     44 H13         0.5600   -1.9600    7.6610 hc        1 2W4      0.084667
     45 H14        -0.8120   -2.6630    6.7070 hc        1 2W4      0.084667
     46 H15        -1.0790   -2.1330    8.4160 hc        1 2W4      0.084667
     47 H16        -1.9890    1.3880    4.5770 ha        1 2W4      0.158000
     48 H17        -2.3080   -1.0610    2.6580 ha        1 2W4      0.145000
     49 H18         0.1990    2.9630    0.6880 hn        1 2W4      0.271000
     50 H19        -5.8580   -4.9940   -6.0480 ha        1 2W4      0.126500
     51 H20        -3.4060   -0.8100    0.8410 h4        1 2W4      0.153000
     52 H21        -3.2200    0.1540   -4.7390 ha        1 2W4      0.167000
     53 H22        -1.9660    1.6480   -6.3220 ha        1 2W4      0.153000
     54 H23        -2.3010   -1.6400    5.0750 h1        1 2W4      0.120000
     55 H24        -3.8060   -0.6180    5.2780 h1        1 2W4      0.120000
     56 C01        -3.1960    0.1450    7.5930 c2        1 2W4      0.277000
@<TRIPOS>BOND
     1    1    2 1   
     2    1   19 1   
     3    1   23 1   
     4    2   21 1   
     5    2   22 1   
     6    3   24 1   
     7    3   25 1   
     8    4   26 1   
     9    5    9 1   
    10    5   25 1   
    11    5   27 1   
    12    6   28 1   
    13    6   29 1   
    14    6   30 1   
    15    7    8 1   
    16    7   35 1   
    17    8   30 1   
    18    9   30 1   
    19    9   36 1   
    20   10   56 1   
    21   11   12 1   
    22   11   13 1   
    23   11   37 1   
    24   11   56 1   
    25   12   38 1   
    26   12   39 1   
    27   12   40 1   
    28   13   41 1   
    29   14   15 1   
    30   14   31 1   
    31   14   56 1   
    32   15   16 1   
    33   15   42 1   
    34   15   43 1   
    35   16   44 1   
    36   16   45 1   
    37   16   46 1   
    38   17   18 1   
    39   17   31 1   
    40   17   47 1   
    41   18   19 1   
    42   18   48 1   
    43   19   20 1   
    44   20   21 1   
    45   21   49 1   
    46   23   26 1   
    47   23   51 1   
    48   24   32 1   
    49   24   50 1   
    50   25   33 1   
    51   27   28 1   
    52   27   52 1   
    53   28   53 1   
    54   29   34 1   
    55   31   54 1   
    56   31   55 1   
@<TRIPOS>SUBSTRUCTURE
     1 2W4         1 TEMP              0 ****  ****    0 ROOT
