@<TRIPOS>MOLECULE
2W5
   52    54     1     0     0
SMALL
bcc


@<TRIPOS>ATOM
      1 C1          0.1200    2.8580    0.9330 c3        1 2W5      0.119700
      2 C3          1.9780    1.8410    2.0220 ca        1 2W5      0.677100
      3 C7          5.3900   -1.4410    2.7680 c3        1 2W5      0.119700
      4 C9          1.9070    0.4850    3.9000 ca        1 2W5      0.699300
      5 C11         1.2290    0.0460    5.1970 c3        1 2W5     -0.094000
      6 C13         0.6470   -1.3540    5.0210 c3        1 2W5     -0.074400
      7 C14         0.0180   -1.8450    6.3090 c3        1 2W5     -0.088400
      8 C15        -1.0400   -0.8880    6.8130 c3        1 2W5     -0.081400
      9 C16        -0.4830    0.5110    6.9740 c3        1 2W5     -0.081400
     10 C19         0.6880    2.3800    5.8720 c         1 2W5      0.559100
     11 C22         0.8180    4.7860    5.1330 c3        1 2W5      0.172100
     12 C24        -0.5540    6.8680    4.9130 ca        1 2W5     -0.088000
     13 C30         0.3240    5.8200    2.9110 ca        1 2W5     -0.109000
     14 O2          1.5050    2.9140    1.2840 os        1 2W5     -0.437100
     15 C4          3.1600    1.2310    1.5770 ca        1 2W5     -0.359600
     16 C5          3.6690    0.2000    2.4200 ca        1 2W5      0.677100
     17 O6          4.8220   -0.3830    1.9830 os        1 2W5     -0.437100
     18 N8          3.0540   -0.1830    3.5750 nb        1 2W5     -0.816000
     19 N10         1.3370    1.4920    3.1770 nb        1 2W5     -0.816000
     20 C17         0.1150    0.9970    5.6540 c3        1 2W5     -0.117700
     21 O20         1.5400    2.7140    6.6800 o         1 2W5     -0.419100
     22 N21         0.1250    3.4670    4.9830 ny        1 2W5     -0.681800
     23 C23         0.1670    5.8380    4.3010 ca        1 2W5     -0.174300
     24 C25        -1.1170    7.8780    4.1390 ca        1 2W5     -0.112000
     25 C26        -0.9730    7.8670    2.7450 ca        1 2W5      0.050400
     26 Cl7        -1.6690    9.1020    1.8330 cl        1 2W5     -0.011400
     27 C28        -0.2480    6.8290    2.1300 ca        1 2W5      0.012400
     28 Cl9        -0.0470    6.7780    0.4520 cl        1 2W5     -0.029400
     29 H1         -0.1280    1.8850    0.4480 h1        1 2W5      0.059867
     30 H2          0.0060    3.7080    0.2110 h1        1 2W5      0.059867
     31 H3         -0.5180    3.0200    1.8360 h1        1 2W5      0.059867
     32 H4          4.6790   -2.2990    2.8360 h1        1 2W5      0.059867
     33 H5          5.6670   -1.0680    3.7820 h1        1 2W5      0.059867
     34 H6          6.3010   -1.7170    2.1750 h1        1 2W5      0.059867
     35 H7          2.0180    0.0170    6.0050 hc        1 2W5      0.105700
     36 H8         -0.1170   -1.3430    4.2010 hc        1 2W5      0.070200
     37 H9          1.4650   -2.0590    4.7180 hc        1 2W5      0.070200
     38 H10        -0.4440   -2.8520    6.1310 hc        1 2W5      0.065700
     39 H11         0.8120   -1.9740    7.0910 hc        1 2W5      0.065700
     40 H12        -1.4280   -1.2410    7.8050 hc        1 2W5      0.062700
     41 H13        -1.9070   -0.8710    6.1010 hc        1 2W5      0.062700
     42 H14        -1.3000    1.2090    7.2950 hc        1 2W5      0.064200
     43 H15         0.3090    0.5190    7.7690 hc        1 2W5      0.064200
     44 H16         0.8050    5.0640    6.2270 hx        1 2W5      0.115700
     45 H17         1.8940    4.6390    4.8220 hx        1 2W5      0.115700
     46 H20         3.6690    1.5250    0.6510 ha        1 2W5      0.201000
     47 H21        -0.6990    1.0080    4.8750 hc        1 2W5      0.094700
     48 H22         0.2070    3.1510    3.9990 hn        1 2W5      0.469300
     49 H23        -1.6770    8.6960    4.6250 ha        1 2W5      0.175000
     50 H18        -0.6670    6.8970    6.0090 ha        1 2W5      0.151000
     51 H212       -0.8710    3.5790    5.1960 hn        1 2W5      0.469300
     52 H19         0.9100    5.0200    2.4230 ha        1 2W5      0.163000
@<TRIPOS>BOND
     1    1   14 1   
     2    1   29 1   
     3    1   30 1   
     4    1   31 1   
     5    2   14 1   
     6    2   15 ar  
     7    2   19 ar  
     8    3   17 1   
     9    3   32 1   
    10    3   33 1   
    11    3   34 1   
    12    4    5 1   
    13    4   18 ar  
    14    4   19 ar  
    15    5    6 1   
    16    5   20 1   
    17    5   35 1   
    18    6    7 1   
    19    6   36 1   
    20    6   37 1   
    21    7    8 1   
    22    7   38 1   
    23    7   39 1   
    24    8    9 1   
    25    8   40 1   
    26    8   41 1   
    27    9   20 1   
    28    9   42 1   
    29    9   43 1   
    30   10   20 1   
    31   10   21 2   
    32   10   22 1   
    33   11   22 1   
    34   11   23 1   
    35   11   44 1   
    36   11   45 1   
    37   12   23 ar  
    38   12   24 ar  
    39   12   50 1   
    40   13   23 ar  
    41   13   27 ar  
    42   13   52 1   
    43   15   16 ar  
    44   15   46 1   
    45   16   17 1   
    46   16   18 ar  
    47   20   47 1   
    48   22   48 1   
    49   22   51 1   
    50   24   25 ar  
    51   24   49 1   
    52   25   26 1   
    53   25   27 ar  
    54   27   28 1   
@<TRIPOS>SUBSTRUCTURE
     1 2W5         1 TEMP              0 ****  ****    0 ROOT
