@<TRIPOS>MOLECULE
2W5
   52    54     1     0     0
SMALL
bcc


@<TRIPOS>ATOM
      1 C1          0.1560    2.8700    0.9270 c3        1 2W5      0.119700
      2 C3          2.0050    1.8550    2.0330 ca        1 2W5      0.677100
      3 C7          5.4200   -1.4170    2.8080 c3        1 2W5      0.119700
      4 C9          1.9160    0.4920    3.9050 ca        1 2W5      0.698300
      5 C11         1.2240    0.0450    5.1920 c3        1 2W5     -0.094000
      6 C13         0.6500   -1.3560    5.0040 c3        1 2W5     -0.074400
      7 C14         0.0070   -1.8550    6.2810 c3        1 2W5     -0.088400
      8 C15        -1.0610   -0.9030    6.7770 c3        1 2W5     -0.081400
      9 C16        -0.5110    0.4970    6.9510 c3        1 2W5     -0.081400
     10 C19         0.6670    2.3740    5.8700 c         1 2W5      0.559100
     11 C22         0.7980    4.7840    5.1420 c3        1 2W5      0.172100
     12 C24        -0.5780    6.8620    4.9140 ca        1 2W5     -0.088000
     13 C30         0.3260    5.8250    2.9190 ca        1 2W5     -0.109000
     14 O2          1.5360    2.9290    1.2940 os        1 2W5     -0.437100
     15 C4          3.1950    1.2510    1.6000 ca        1 2W5     -0.359600
     16 C5          3.6970    0.2190    2.4460 ca        1 2W5      0.677100
     17 O6          4.8580   -0.3570    2.0210 os        1 2W5     -0.437100
     18 N8          3.0700   -0.1700    3.5920 nb        1 2W5     -0.816000
     19 N10         1.3510    1.4990    3.1790 nb        1 2W5     -0.816000
     20 C17         0.1010    0.9900    5.6390 c3        1 2W5     -0.117700
     21 O20         1.5080    2.7080    6.6890 o         1 2W5     -0.419100
     22 N21         0.1110    3.4630    4.9790 n4        1 2W5     -0.681800
     23 C23         0.1530    5.8360    4.3060 ca        1 2W5     -0.174300
     24 C25        -1.1360    7.8730    4.1380 ca        1 2W5     -0.112000
     25 C26        -0.9750    7.8680    2.7460 ca        1 2W5      0.050400
     26 CL7        -1.6650    9.1040    1.8310 cl        1 2W5     -0.011400
     27 C28        -0.2390    6.8350    2.1350 ca        1 2W5      0.012400
     28 CL9        -0.0190    6.7920    0.4590 cl        1 2W5     -0.029400
     29 H1          0.0480    3.7220    0.2060 h1        1 2W5      0.059867
     30 H2         -0.0840    1.8970    0.4360 h1        1 2W5      0.059867
     31 H3         -0.4930    3.0270    1.8230 h1        1 2W5      0.059867
     32 H4          4.7120   -2.2770    2.8640 h1        1 2W5      0.059867
     33 H5          6.3390   -1.6860    2.2250 h1        1 2W5      0.059867
     34 H6          5.6830   -1.0460    3.8270 h1        1 2W5      0.059867
     35 H7          2.0030    0.0150    6.0100 hc        1 2W5      0.105700
     36 H8         -0.1050   -1.3450    4.1740 hc        1 2W5      0.070200
     37 H9          1.4740   -2.0580    4.7070 hc        1 2W5      0.070200
     38 H10        -0.4490   -2.8620    6.0930 hc        1 2W5      0.065700
     39 H11         0.7920   -1.9840    7.0720 hc        1 2W5      0.065700
     40 H12        -1.4590   -1.2630    7.7630 hc        1 2W5      0.062700
     41 H13        -1.9190   -0.8860    6.0540 hc        1 2W5      0.062700
     42 H14         0.2720    0.5040    7.7550 hc        1 2W5      0.064200
     43 H15        -1.3340    1.1900    7.2640 hc        1 2W5      0.064200
     44 H16         1.8780    4.6410    4.8430 hx        1 2W5      0.115700
     45 H17         0.7710    5.0580    6.2370 hx        1 2W5      0.115700
     46 H20         3.7130    1.5510    0.6820 ha        1 2W5      0.201000
     47 H21        -0.7040    1.0010    4.8500 hc        1 2W5      0.094700
     48 H22         0.2050    3.1510    3.9950 hn        1 2W5      0.469300
     49 H23        -1.7040    8.6870    4.6200 ha        1 2W5      0.175000
     50 H18        -0.7040    6.8860    6.0080 ha        1 2W5      0.151000
     51 H212       -0.8880    3.5710    5.1810 hn        1 2W5      0.469300
     52 H19         0.9210    5.0290    2.4340 ha        1 2W5      0.163000
@<TRIPOS>BOND
     1    1   14 1   
     2    1   29 1   
     3    1   30 1   
     4    1   31 1   
     5    2   14 1   
     6    2   15 ar  
     7    2   19 ar  
     8    3   17 1   
     9    3   32 1   
    10    3   33 1   
    11    3   34 1   
    12    4    5 1   
    13    4   18 ar  
    14    4   19 ar  
    15    5    6 1   
    16    5   20 1   
    17    5   35 1   
    18    6    7 1   
    19    6   36 1   
    20    6   37 1   
    21    7    8 1   
    22    7   38 1   
    23    7   39 1   
    24    8    9 1   
    25    8   40 1   
    26    8   41 1   
    27    9   20 1   
    28    9   42 1   
    29    9   43 1   
    30   10   20 1   
    31   10   21 2   
    32   10   22 1   
    33   11   22 1   
    34   11   23 1   
    35   11   44 1   
    36   11   45 1   
    37   12   23 ar  
    38   12   24 ar  
    39   12   50 1   
    40   13   23 ar  
    41   13   27 ar  
    42   13   52 1   
    43   15   16 ar  
    44   15   46 1   
    45   16   17 1   
    46   16   18 ar  
    47   20   47 1   
    48   22   48 1   
    49   22   51 1   
    50   24   25 ar  
    51   24   49 1   
    52   25   26 1   
    53   25   27 ar  
    54   27   28 1   
@<TRIPOS>SUBSTRUCTURE
     1 2W5         1 TEMP              0 ****  ****    0 ROOT
