@<TRIPOS>MOLECULE
2W6
   64    67     1     0     0
SMALL
bcc


@<TRIPOS>ATOM
      1 C1          0.9690    0.8630   -2.2600 ca        1 2W6     -0.126500
      2 C2          2.1040    0.5880   -1.4980 ca        1 2W6     -0.120500
      3 C3          1.9820    0.3180   -0.1310 ca        1 2W6     -0.156300
      4 C4          0.7140    0.3180    0.4630 ca        1 2W6     -0.120500
      5 C5         -0.4180    0.5970   -0.3010 ca        1 2W6     -0.126500
      6 C6         -0.2920    0.8700   -1.6640 ca        1 2W6     -0.107000
      7 C7          3.1910    0.0050    0.7170 c3        1 2W6      0.146300
      8 C8          4.0770    1.2670    0.8320 c3        1 2W6     -0.113400
      9 C9          3.3230    2.3290    1.6200 c3        1 2W6      0.101800
     10 N10         4.0380    3.6520    1.6380 nx        1 2W6     -0.678400
     11 C11         3.8390    4.3930    0.3650 c3        1 2W6      0.081600
     12 C12         3.5940    4.4730    2.7950 c3        1 2W6      0.081600
     13 N13         3.9710   -1.1360    0.2580 na        1 2W6      0.059400
     14 N14         4.8920   -1.0500   -0.7260 nc        1 2W6     -0.536800
     15 C15         5.1770   -2.3030   -1.1240 cd        1 2W6      0.335200
     16 C16         4.3330   -3.2650   -0.4000 cd        1 2W6     -0.076700
     17 C17         3.5490   -2.4700    0.4580 cc        1 2W6     -0.203300
     18 N18         4.3190   -4.6410   -0.5100 ns        1 2W6     -0.441100
     19 C19         5.1560   -5.3650   -1.3580 c         1 2W6      0.619600
     20 O20         5.9840   -4.7960   -2.0930 o         1 2W6     -0.591100
     21 C21         5.0180   -6.8350   -1.3480 cc        1 2W6      0.243800
     22 C22         5.7450   -7.7320   -2.2160 cc        1 2W6     -0.168600
     23 C23         5.3120   -9.0220   -1.8440 cd        1 2W6     -0.110600
     24 N24         4.3820   -8.8410   -0.8130 na        1 2W6      0.019400
     25 N25         4.2010   -7.5650   -0.5150 nd        1 2W6     -0.507800
     26 C26         5.7950  -10.2870   -2.4270 c3        1 2W6     -0.007100
     27 C27         6.5500  -10.0170   -3.7400 c3        1 2W6     -0.046000
     28 C28         7.4590   -8.7900   -3.6130 c3        1 2W6     -0.072400
     29 C29         6.7200   -7.5010   -3.2850 c3        1 2W6     -0.009100
     30 C30         7.4160  -11.2320   -4.0490 c3        1 2W6     -0.091600
     31 C31         5.5540   -9.8190   -4.8730 c3        1 2W6     -0.091600
     32 H1          1.0690    1.0590   -3.3390 ha        1 2W6      0.148000
     33 H2          3.0930    0.5620   -1.9840 ha        1 2W6      0.141500
     34 H3          0.6020    0.0760    1.5310 ha        1 2W6      0.141500
     35 H4         -1.4130    0.5860    0.1690 ha        1 2W6      0.148000
     36 H5         -1.1880    1.0770   -2.2690 ha        1 2W6      0.150000
     37 H6          2.8400   -0.2780    1.7580 h1        1 2W6      0.067700
     38 H7          5.0390    1.0100    1.3500 hc        1 2W6      0.085700
     39 H8          4.3260    1.6260   -0.2030 hc        1 2W6      0.085700
     40 H9          2.2970    2.4890    1.1750 hx        1 2W6      0.108200
     41 H10         3.2020    1.9900    2.6890 hx        1 2W6      0.108200
     42 H12         4.1710    3.7520   -0.4960 hx        1 2W6      0.106033
     43 H13         4.4440    5.3380    0.3870 hx        1 2W6      0.106033
     44 H14         2.7520    4.6450    0.2430 hx        1 2W6      0.106033
     45 H15         3.8480    3.9410    3.7510 hx        1 2W6      0.106033
     46 H16         2.4840    4.6310    2.7370 hx        1 2W6      0.106033
     47 H17         4.1170    5.4660    2.7680 hx        1 2W6      0.106033
     48 H18         5.9390   -2.5460   -1.8730 h4        1 2W6      0.086100
     49 H19         2.7830   -2.7350    1.1830 h4        1 2W6      0.181000
     50 H20         3.6700   -5.1240    0.0690 hn        1 2W6      0.339500
     51 H21         3.8820   -9.5480   -0.3240 hn        1 2W6      0.329700
     52 H22         4.9440  -10.9910   -2.6260 hc        1 2W6      0.060700
     53 H23         6.4880  -10.7880   -1.6960 hc        1 2W6      0.060700
     54 H24         8.2170   -8.9920   -2.8110 hc        1 2W6      0.049200
     55 H25         8.0140   -8.6520   -4.5780 hc        1 2W6      0.049200
     56 H26         6.1870   -7.1190   -4.1990 hc        1 2W6      0.069200
     57 H27         7.4510   -6.7040   -2.9780 hc        1 2W6      0.069200
     58 H28         6.7860  -12.1530   -4.0960 hc        1 2W6      0.040200
     59 H29         8.1940  -11.3710   -3.2620 hc        1 2W6      0.040200
     60 H30         7.9250  -11.0990   -5.0340 hc        1 2W6      0.040200
     61 H31         4.9650  -10.7530   -5.0390 hc        1 2W6      0.040200
     62 H32         4.8480   -8.9900   -4.6280 hc        1 2W6      0.040200
     63 H33         6.0910   -9.5650   -5.8180 hc        1 2W6      0.040200
     64 H101        5.0450    3.4620    1.7420 hn        1 2W6      0.452800
@<TRIPOS>BOND
     1    1    2 ar  
     2    1    6 ar  
     3    1   32 1   
     4    2    3 ar  
     5    2   33 1   
     6    3    4 ar  
     7    3    7 1   
     8    4    5 ar  
     9    4   34 1   
    10    5    6 ar  
    11    5   35 1   
    12    6   36 1   
    13    7    8 1   
    14    7   13 1   
    15    7   37 1   
    16    8    9 1   
    17    8   38 1   
    18    8   39 1   
    19    9   10 1   
    20    9   40 1   
    21    9   41 1   
    22   10   11 1   
    23   10   12 1   
    24   10   64 1   
    25   11   42 1   
    26   11   43 1   
    27   11   44 1   
    28   12   45 1   
    29   12   46 1   
    30   12   47 1   
    31   13   14 1   
    32   13   17 1   
    33   14   15 2   
    34   15   16 1   
    35   15   48 1   
    36   16   17 2   
    37   16   18 1   
    38   17   49 1   
    39   18   19 1   
    40   18   50 1   
    41   19   20 2   
    42   19   21 1   
    43   21   22 1   
    44   21   25 2   
    45   22   23 2   
    46   22   29 1   
    47   23   24 1   
    48   23   26 1   
    49   24   25 1   
    50   24   51 1   
    51   26   27 1   
    52   26   52 1   
    53   26   53 1   
    54   27   28 1   
    55   27   30 1   
    56   27   31 1   
    57   28   29 1   
    58   28   54 1   
    59   28   55 1   
    60   29   56 1   
    61   29   57 1   
    62   30   58 1   
    63   30   59 1   
    64   30   60 1   
    65   31   61 1   
    66   31   62 1   
    67   31   63 1   
@<TRIPOS>SUBSTRUCTURE
     1 2W6         1 TEMP              0 ****  ****    0 ROOT
