@<TRIPOS>MOLECULE
2W6
   64    67     1     0     0
SMALL
bcc


@<TRIPOS>ATOM
      1 C1          1.0380    0.8920   -2.3250 ca        1 2W6     -0.126500
      2 C2          2.1470    0.6050   -1.5280 ca        1 2W6     -0.120500
      3 C3          1.9780    0.3210   -0.1690 ca        1 2W6     -0.156300
      4 C4          0.6910    0.3200    0.3830 ca        1 2W6     -0.120500
      5 C5         -0.4140    0.6110   -0.4160 ca        1 2W6     -0.126500
      6 C6         -0.2420    0.8970   -1.7710 ca        1 2W6     -0.107000
      7 C7          3.1570   -0.0050    0.7160 c3        1 2W6      0.146300
      8 C8          4.0450    1.2510    0.8710 c3        1 2W6     -0.113400
      9 C9          3.2700    2.3100    1.6430 c3        1 2W6      0.101800
     10 N10         3.9910    3.6290    1.6980 n4        1 2W6     -0.678400
     11 C11         3.8390    4.3820    0.4250 c3        1 2W6      0.081600
     12 C12         3.5120    4.4410    2.8460 c3        1 2W6      0.081600
     13 N13         3.9460   -1.1460    0.2720 na        1 2W6      0.059400
     14 N14         4.8980   -1.0560   -0.6820 nc        1 2W6     -0.536800
     15 C15         5.1880   -2.3070   -1.0830 cd        1 2W6      0.335200
     16 C16         4.3170   -3.2710   -0.3950 cd        1 2W6     -0.076700
     17 C17         3.5100   -2.4800    0.4460 cc        1 2W6     -0.203300
     18 N18         4.2990   -4.6460   -0.5180 n         1 2W6     -0.441100
     19 C19         5.1570   -5.3670   -1.3470 c         1 2W6      0.619600
     20 O20         6.0090   -4.7960   -2.0530 o         1 2W6     -0.591100
     21 C21         5.0100   -6.8370   -1.3560 cc        1 2W6      0.243800
     22 C22         5.7540   -7.7290   -2.2130 cc        1 2W6     -0.169600
     23 C23         5.3060   -9.0200   -1.8640 cd        1 2W6     -0.110600
     24 N24         4.3510   -8.8430   -0.8560 na        1 2W6      0.019400
     25 N25         4.1690   -7.5690   -0.5500 nd        1 2W6     -0.507800
     26 C26         5.7970  -10.2820   -2.4460 c3        1 2W6     -0.007100
     27 C27         6.5870  -10.0040   -3.7380 c3        1 2W6     -0.046000
     28 C28         7.4980   -8.7830   -3.5760 c3        1 2W6     -0.072400
     29 C29         6.7580   -7.4940   -3.2550 c3        1 2W6     -0.009100
     30 C30         7.4530  -11.2220   -4.0360 c3        1 2W6     -0.091600
     31 C31         5.6200   -9.7910   -4.8930 c3        1 2W6     -0.091600
     32 H1          1.1750    1.0990   -3.3980 ha        1 2W6      0.148000
     33 H2          3.1510    0.5800   -1.9820 ha        1 2W6      0.141500
     34 H3          0.5420    0.0680    1.4440 ha        1 2W6      0.141500
     35 H4         -1.4250    0.5990    0.0210 ha        1 2W6      0.148000
     36 H5         -1.1160    1.1140   -2.4040 ha        1 2W6      0.150000
     37 H6          2.7710   -0.2960    1.7420 h1        1 2W6      0.067700
     38 H7          4.9880    0.9840    1.4190 hc        1 2W6      0.085700
     39 H8          4.3300    1.6180   -0.1510 hc        1 2W6      0.085700
     40 H9          3.1120    1.9620    2.7050 hx        1 2W6      0.108200
     41 H10         2.2610    2.4790    1.1660 hx        1 2W6      0.108200
     42 H12         4.4480    5.3240    0.4770 hx        1 2W6      0.106033
     43 H13         2.7580    4.6410    0.2680 hx        1 2W6      0.106033
     44 H14         4.1980    3.7470   -0.4300 hx        1 2W6      0.106033
     45 H15         4.0400    5.4320    2.8460 hx        1 2W6      0.106033
     46 H16         3.7310    3.9000    3.8050 hx        1 2W6      0.106033
     47 H17         2.4050    4.6060    2.7520 hx        1 2W6      0.106033
     48 H18         5.9720   -2.5480   -1.8090 h4        1 2W6      0.086100
     49 H19         2.7210   -2.7470    1.1440 h4        1 2W6      0.181000
     50 H20         3.6300   -5.1310    0.0370 hn        1 2W6      0.339500
     51 H21         3.8350   -9.5530   -0.3860 hn        1 2W6      0.329700
     52 H22         6.4680  -10.7940   -1.7030 hc        1 2W6      0.060700
     53 H23         4.9480  -10.9800   -2.6740 hc        1 2W6      0.060700
     54 H24         8.0780   -8.6400   -4.5250 hc        1 2W6      0.049200
     55 H25         8.2350   -8.9970   -2.7570 hc        1 2W6      0.049200
     56 H26         7.4840   -6.7030   -2.9220 hc        1 2W6      0.069200
     57 H27         6.2500   -7.1010   -4.1780 hc        1 2W6      0.069200
     58 H28         8.2100  -11.3720   -3.2300 hc        1 2W6      0.040200
     59 H29         6.8200  -12.1380   -4.1080 hc        1 2W6      0.040200
     60 H30         7.9890  -11.0820   -5.0050 hc        1 2W6      0.040200
     61 H31         5.0310  -10.7200   -5.0830 hc        1 2W6      0.040200
     62 H32         4.9120   -8.9600   -4.6590 hc        1 2W6      0.040200
     63 H33         6.1830   -9.5310   -5.8220 hc        1 2W6      0.040200
     64 H101        4.9930    3.4320    1.8340 hn        1 2W6      0.452800
@<TRIPOS>BOND
     1    1    2 ar  
     2    1    6 ar  
     3    1   32 1   
     4    2    3 ar  
     5    2   33 1   
     6    3    4 ar  
     7    3    7 1   
     8    4    5 ar  
     9    4   34 1   
    10    5    6 ar  
    11    5   35 1   
    12    6   36 1   
    13    7    8 1   
    14    7   13 1   
    15    7   37 1   
    16    8    9 1   
    17    8   38 1   
    18    8   39 1   
    19    9   10 1   
    20    9   40 1   
    21    9   41 1   
    22   10   11 1   
    23   10   12 1   
    24   10   64 1   
    25   11   42 1   
    26   11   43 1   
    27   11   44 1   
    28   12   45 1   
    29   12   46 1   
    30   12   47 1   
    31   13   14 1   
    32   13   17 1   
    33   14   15 2   
    34   15   16 1   
    35   15   48 1   
    36   16   17 2   
    37   16   18 1   
    38   17   49 1   
    39   18   19 1   
    40   18   50 1   
    41   19   20 2   
    42   19   21 1   
    43   21   22 1   
    44   21   25 2   
    45   22   23 2   
    46   22   29 1   
    47   23   24 1   
    48   23   26 1   
    49   24   25 1   
    50   24   51 1   
    51   26   27 1   
    52   26   52 1   
    53   26   53 1   
    54   27   28 1   
    55   27   30 1   
    56   27   31 1   
    57   28   29 1   
    58   28   54 1   
    59   28   55 1   
    60   29   56 1   
    61   29   57 1   
    62   30   58 1   
    63   30   59 1   
    64   30   60 1   
    65   31   61 1   
    66   31   62 1   
    67   31   63 1   
@<TRIPOS>SUBSTRUCTURE
     1 2W6         1 TEMP              0 ****  ****    0 ROOT
