@<TRIPOS>MOLECULE
2W6
   65    68     1     0     0
SMALL
bcc


@<TRIPOS>ATOM
      1 C1         -0.3370    0.6520    0.2970 ca        1 2W6     -0.119500
      2 C2          0.9380    0.5420   -0.2580 ca        1 2W6     -0.118500
      3 C3          1.9880    0.0150    0.5020 ca        1 2W6     -0.182300
      4 C4          1.7520   -0.4120    1.8140 ca        1 2W6     -0.118500
      5 C5          0.4770   -0.2970    2.3660 ca        1 2W6     -0.119500
      6 C6         -0.5690    0.2340    1.6090 ca        1 2W6     -0.089000
      7 C7          3.3730   -0.1180   -0.0750 c3        1 2W6      0.140300
      8 C8          3.9530    1.2740   -0.4010 c3        1 2W6     -0.110400
      9 C9          4.1480    2.0400    0.9040 c3        1 2W6      0.101800
     10 N10         4.5780    3.4640    0.6940 n4        1 2W6     -0.677400
     11 C11         3.4310    4.3290    0.3080 c3        1 2W6      0.081100
     12 C12         5.2400    3.9950    1.9170 c3        1 2W6      0.081100
     13 N13         3.4010   -1.0090   -1.2480 na        1 2W6      0.102400
     14 N14         3.2780   -0.5790   -2.5220 nc        1 2W6     -0.485800
     15 C15         3.2400   -1.6680   -3.3170 cd        1 2W6      0.359200
     16 C16         3.3170   -2.8680   -2.4930 cd        1 2W6     -0.271700
     17 C17         3.4140   -2.3960   -1.1600 cc        1 2W6     -0.023300
     18 N18         3.2940   -4.2150   -2.9690 n4        1 2W6     -0.493200
     19 C19         4.2830   -5.1740   -2.2900 c         1 2W6      0.519600
     20 O20         4.8110   -4.7820   -1.2590 o         1 2W6     -0.440100
     21 C21         4.4330   -6.4400   -2.9620 cc        1 2W6      0.165800
     22 C22         5.3180   -7.5040   -2.5550 cc        1 2W6     -0.122600
     23 C23         5.0910   -8.5330   -3.4990 cd        1 2W6     -0.080600
     24 N24         4.1210   -8.0460   -4.3880 na        1 2W6      0.078400
     25 N25         3.7250   -6.8320   -4.0950 nd        1 2W6     -0.508800
     26 C26         5.7420   -9.8560   -3.4970 c3        1 2W6     -0.023100
     27 C27         6.9640   -9.8500   -2.5610 c3        1 2W6     -0.046000
     28 C28         6.6610   -9.0970   -1.2620 c3        1 2W6     -0.077400
     29 C29         6.2890   -7.6350   -1.4640 c3        1 2W6     -0.023100
     30 C30         7.3000  -11.2960   -2.2150 c3        1 2W6     -0.095100
     31 C31         8.1540   -9.2240   -3.2730 c3        1 2W6     -0.095100
     32 H1         -1.1640    1.0620   -0.3050 ha        1 2W6      0.161000
     33 H2          1.1080    0.8600   -1.2980 ha        1 2W6      0.140500
     34 H3          2.5660   -0.8480    2.4150 ha        1 2W6      0.140500
     35 H4          0.2930   -0.6350    3.3990 ha        1 2W6      0.161000
     36 H5         -1.5780    0.3170    2.0440 ha        1 2W6      0.165000
     37 H6          4.0500   -0.6170    0.6860 h1        1 2W6      0.082700
     38 H7          4.9350    1.1670   -0.9350 hc        1 2W6      0.088200
     39 H8          3.2440    1.8160   -1.0840 hc        1 2W6      0.088200
     40 H9          4.9430    1.5310    1.5230 hx        1 2W6      0.112200
     41 H10         3.1850    2.0480    1.4950 hx        1 2W6      0.112200
     42 H12         3.8070    5.3670    0.0960 hx        1 2W6      0.110700
     43 H13         2.6870    4.3670    1.1480 hx        1 2W6      0.110700
     44 H14         2.9400    3.9130   -0.6120 hx        1 2W6      0.110700
     45 H15         4.5310    3.9290    2.7860 hx        1 2W6      0.110700
     46 H16         5.5240    5.0690    1.7470 hx        1 2W6      0.110700
     47 H17         6.1630    3.3940    2.1360 hx        1 2W6      0.110700
     48 H18         3.1600   -1.5950   -4.4060 h4        1 2W6      0.077100
     49 H19         3.5180   -2.9440   -0.2180 h4        1 2W6      0.220000
     50 H20         2.3480   -4.6020   -2.8370 hn        1 2W6      0.471800
     51 H21         3.7350   -8.5270   -5.1780 hn        1 2W6      0.357700
     52 H22         6.0690  -10.1480   -4.5310 hc        1 2W6      0.081200
     53 H23         5.0030  -10.6270   -3.1420 hc        1 2W6      0.081200
     54 H24         7.5640   -9.1470   -0.5980 hc        1 2W6      0.064200
     55 H25         5.8220   -9.6200   -0.7320 hc        1 2W6      0.064200
     56 H26         5.8690   -7.2120   -0.5120 hc        1 2W6      0.073200
     57 H27         7.2100   -7.0380   -1.7160 hc        1 2W6      0.073200
     58 H28         6.4670  -11.7680   -1.6400 hc        1 2W6      0.048033
     59 H29         7.4720  -11.8860   -3.1470 hc        1 2W6      0.048033
     60 H30         8.2270  -11.3340   -1.5930 hc        1 2W6      0.048033
     61 H31         7.9050   -8.1940   -3.6240 hc        1 2W6      0.048033
     62 H32         9.0280   -9.1640   -2.5800 hc        1 2W6      0.048033
     63 H33         8.4460   -9.8410   -4.1560 hc        1 2W6      0.048033
     64 H101        5.2630    3.4790   -0.0750 hn        1 2W6      0.452800
     65 H182        3.4950   -4.2010   -3.9790 hn        1 2W6      0.471800
@<TRIPOS>BOND
     1    1    2 ar  
     2    1    6 ar  
     3    1   32 1   
     4    2    3 ar  
     5    2   33 1   
     6    3    4 ar  
     7    3    7 1   
     8    4    5 ar  
     9    4   34 1   
    10    5    6 ar  
    11    5   35 1   
    12    6   36 1   
    13    7    8 1   
    14    7   13 1   
    15    7   37 1   
    16    8    9 1   
    17    8   38 1   
    18    8   39 1   
    19    9   10 1   
    20    9   40 1   
    21    9   41 1   
    22   10   11 1   
    23   10   12 1   
    24   10   64 1   
    25   11   42 1   
    26   11   43 1   
    27   11   44 1   
    28   12   45 1   
    29   12   46 1   
    30   12   47 1   
    31   13   14 1   
    32   13   17 1   
    33   14   15 2   
    34   15   16 1   
    35   15   48 1   
    36   16   17 2   
    37   16   18 1   
    38   17   49 1   
    39   18   19 1   
    40   18   50 1   
    41   18   65 1   
    42   19   20 2   
    43   19   21 1   
    44   21   22 1   
    45   21   25 2   
    46   22   23 2   
    47   22   29 1   
    48   23   24 1   
    49   23   26 1   
    50   24   25 1   
    51   24   51 1   
    52   26   27 1   
    53   26   52 1   
    54   26   53 1   
    55   27   28 1   
    56   27   30 1   
    57   27   31 1   
    58   28   29 1   
    59   28   54 1   
    60   28   55 1   
    61   29   56 1   
    62   29   57 1   
    63   30   58 1   
    64   30   59 1   
    65   30   60 1   
    66   31   61 1   
    67   31   62 1   
    68   31   63 1   
@<TRIPOS>SUBSTRUCTURE
     1 2W6         1 TEMP              0 ****  ****    0 ROOT
