@<TRIPOS>MOLECULE
2W7
   50    53     1     0     0
SMALL
bcc


@<TRIPOS>ATOM
      1 S2          0.0490    0.0610   -2.1830 sh        1 2W7     -0.061700
      2 C5          1.3280    0.1960   -1.1240 ca        1 2W7      0.099900
      3 C6          1.1050    0.3270    0.2670 ca        1 2W7     -0.172000
      4 C10         2.6750    0.1810   -1.5890 ca        1 2W7     -0.222600
      5 C7          2.1480    0.4270    1.1640 ca        1 2W7      0.006000
      6 C8          3.4820    0.3950    0.7000 ca        1 2W7     -0.113000
      7 C9          3.7360    0.2740   -0.6450 ca        1 2W7     -0.089000
      8 C11         2.9150    0.0630   -2.9960 c         1 2W7      0.585700
      9 O2          2.1460   -0.1180   -3.9440 o         1 2W7     -0.542100
     10 N3          4.3810    0.1790   -3.4730 n4        1 2W7     -0.684800
     11 C12         4.4900    0.3300   -4.9480 c3        1 2W7      0.043800
     12 C13         4.0400   -0.9380   -5.6740 c         1 2W7      0.530100
     13 O3          4.5500   -2.0310   -5.4600 o         1 2W7     -0.384100
     14 N4          2.9310   -0.8360   -6.6480 n4        1 2W7     -0.665800
     15 C14         3.3640   -0.4330   -8.0770 c3        1 2W7      0.153200
     16 C18         3.9850    0.9730   -8.0700 c3        1 2W7     -0.093067
     17 C17         4.3690    1.3460   -9.5030 c3        1 2W7     -0.056700
     18 C19         5.3780    0.3380  -10.0390 c3        1 2W7     -0.087400
     19 C23         4.7550   -1.0520  -10.0480 c3        1 2W7     -0.056700
     20 C24         4.3750   -1.4570   -8.6240 c3        1 2W7     -0.093067
     21 C25         3.5100   -1.0550  -10.9270 c3        1 2W7     -0.087400
     22 C20         2.5050   -0.0450  -10.3860 c3        1 2W7     -0.056700
     23 C26         2.1000   -0.4330   -8.9640 c3        1 2W7     -0.093067
     24 C16         3.1220    1.3480  -10.3800 c3        1 2W7     -0.087400
     25 H1         -0.9780    0.1510   -1.3380 hs        1 2W7      0.227800
     26 H6          0.0660    0.3470    0.6440 ha        1 2W7      0.177000
     27 H7          1.9490    0.5280    2.2470 ha        1 2W7      0.189000
     28 H8          4.3110    0.4640    1.4270 ha        1 2W7      0.184000
     29 H9          4.7890    0.2350   -0.9630 ha        1 2W7      0.123000
     30 H3          4.8100    1.0020   -3.0260 hn        1 2W7      0.481300
     31 H122        3.8890    1.2350   -5.2620 hx        1 2W7      0.151700
     32 H121        5.5790    0.5050   -5.2200 hx        1 2W7      0.151700
     33 H4          2.4780   -1.7610   -6.7260 hn        1 2W7      0.478300
     34 HZ12        3.2530    1.7250   -7.6760 hc        1 2W7      0.060700
     35 HZ11        4.9050    0.9890   -7.4300 hc        1 2W7      0.060700
     36 HY1         4.8260    2.3730   -9.4930 hc        1 2W7      0.097367
     37 HX22        5.6750    0.6230  -11.0820 hc        1 2W7      0.075033
     38 HX21        6.3040    0.3430   -9.4100 hc        1 2W7      0.075033
     39 HY3         5.4980   -1.7990  -10.4420 hc        1 2W7      0.097367
     40 HZ21        3.9250   -2.4840   -8.6390 hc        1 2W7      0.060700
     41 HZ22        5.2940   -1.4810   -7.9820 hc        1 2W7      0.060700
     42 HX31        3.0550   -2.0790  -10.9530 hc        1 2W7      0.075033
     43 HX32        3.7900   -0.7810  -11.9780 hc        1 2W7      0.075033
     44 HY2         1.5820   -0.0480  -11.0290 hc        1 2W7      0.097367
     45 HZ32        1.3490    0.3040   -8.5780 hc        1 2W7      0.060700
     46 HZ31        1.6330   -1.4530   -8.9800 hc        1 2W7      0.060700
     47 HX12        2.3820    2.0990  -10.0020 hc        1 2W7      0.075033
     48 HX11        3.4000    1.6410  -11.4260 hc        1 2W7      0.075033
     49 H32         4.8910   -0.6610   -3.1670 hn        1 2W7      0.481300
     50 H42         2.2370   -0.1570   -6.3080 hn        1 2W7      0.478300
@<TRIPOS>BOND
     1    1    2 1   
     2    1   25 1   
     3    2    3 ar  
     4    2    4 ar  
     5    3    5 ar  
     6    3   26 1   
     7    4    7 ar  
     8    4    8 1   
     9    5    6 ar  
    10    5   27 1   
    11    6    7 ar  
    12    6   28 1   
    13    7   29 1   
    14    8    9 2   
    15    8   10 1   
    16   10   11 1   
    17   10   30 1   
    18   10   49 1   
    19   11   12 1   
    20   11   31 1   
    21   11   32 1   
    22   12   13 2   
    23   12   14 1   
    24   14   15 1   
    25   14   33 1   
    26   14   50 1   
    27   15   16 1   
    28   15   20 1   
    29   15   23 1   
    30   16   17 1   
    31   16   34 1   
    32   16   35 1   
    33   17   18 1   
    34   17   24 1   
    35   17   36 1   
    36   18   19 1   
    37   18   37 1   
    38   18   38 1   
    39   19   20 1   
    40   19   21 1   
    41   19   39 1   
    42   20   40 1   
    43   20   41 1   
    44   21   22 1   
    45   21   42 1   
    46   21   43 1   
    47   22   23 1   
    48   22   24 1   
    49   22   44 1   
    50   23   45 1   
    51   23   46 1   
    52   24   47 1   
    53   24   48 1   
@<TRIPOS>SUBSTRUCTURE
     1 2W7         1 TEMP              0 ****  ****    0 ROOT
