@<TRIPOS>MOLECULE
2W7
   50    53     1     0     0
SMALL
bcc


@<TRIPOS>ATOM
      1 S2          0.8940    2.3690   -0.8820 sh        1 2W7     -0.050700
      2 C5          2.0530    1.2630   -0.4230 ca        1 2W7      0.090900
      3 C6          2.4750    1.1710    0.9250 ca        1 2W7     -0.168000
      4 C10         2.6490    0.3850   -1.3720 ca        1 2W7     -0.224600
      5 C7          3.4380    0.2690    1.3250 ca        1 2W7     -0.004000
      6 C8          4.0320   -0.5920    0.3770 ca        1 2W7     -0.117000
      7 C9          3.6440   -0.5330   -0.9410 ca        1 2W7     -0.091000
      8 C11         2.2120    0.4730   -2.7380 c         1 2W7      0.580700
      9 O2          1.4240    1.2190   -3.3040 o         1 2W7     -0.447100
     10 N3          2.8380   -0.5760   -3.7200 ny        1 2W7     -0.687800
     11 C12         2.2600   -0.4770   -5.0800 c3        1 2W7      0.024800
     12 C13         2.8990   -1.4440   -6.0670 c         1 2W7      0.517100
     13 O3          3.8160   -2.2080   -5.7870 o         1 2W7     -0.397100
     14 N4          2.3460   -1.4520   -7.4430 ny        1 2W7     -0.674800
     15 C14         3.2130   -0.6780   -8.4750 c3        1 2W7      0.159200
     16 C18         3.5440    0.7240   -7.9420 c3        1 2W7     -0.095733
     17 C17         4.3700    1.4630   -8.9980 c3        1 2W7     -0.055700
     18 C19         5.6570    0.6930   -9.2670 c3        1 2W7     -0.088067
     19 C23         5.3210   -0.6950   -9.7970 c3        1 2W7     -0.055700
     20 C24         4.5070   -1.4620   -8.7540 c3        1 2W7     -0.095733
     21 C25         4.5150   -0.5760  -11.0840 c3        1 2W7     -0.088067
     22 C20         3.2290    0.1940  -10.8090 c3        1 2W7     -0.055700
     23 C26         2.3900   -0.5590   -9.7750 c3        1 2W7     -0.095733
     24 C16         3.5610    1.5850  -10.2830 c3        1 2W7     -0.088067
     25 H1          0.6200    2.9360    0.2910 hs        1 2W7      0.221800
     26 H6          2.0190    1.8430    1.6750 ha        1 2W7      0.175000
     27 H7          3.7520    0.2160    2.3830 ha        1 2W7      0.185000
     28 H8          4.8070   -1.3070    0.7040 ha        1 2W7      0.179000
     29 H9          4.1400   -1.2160   -1.6470 ha        1 2W7      0.118000
     30 H3          3.8530   -0.4190   -3.7550 hn        1 2W7      0.467300
     31 H122        1.1460   -0.6700   -5.0060 hx        1 2W7      0.161700
     32 H121        2.3960    0.5880   -5.4550 hx        1 2W7      0.161700
     33 H4          2.2980   -2.4280   -7.7770 hn        1 2W7      0.473300
     34 HZ12        4.1430    0.6480   -6.9970 hc        1 2W7      0.062700
     35 HZ11        2.6060    1.3030   -7.7380 hc        1 2W7      0.062700
     36 HY1         4.6140    2.4870   -8.6050 hc        1 2W7      0.098033
     37 HX22        6.2730    1.2460  -10.0250 hc        1 2W7      0.075867
     38 HX21        6.2660    0.6130   -8.3300 hc        1 2W7      0.075867
     39 HY3         6.2690   -1.2660   -9.9950 hc        1 2W7      0.098033
     40 HZ21        5.1080   -1.5750   -7.8140 hc        1 2W7      0.062700
     41 HZ22        4.2690   -2.4840   -9.1510 hc        1 2W7      0.062700
     42 HX31        5.1190   -0.0340  -11.8590 hc        1 2W7      0.075867
     43 HX32        4.2790   -1.5930  -11.4900 hc        1 2W7      0.075867
     44 HY2         2.6280    0.2800  -11.7560 hc        1 2W7      0.098033
     45 HZ32        2.1380   -1.5750  -10.1750 hc        1 2W7      0.062700
     46 HZ31        1.4390    0.0060   -9.5910 hc        1 2W7      0.062700
     47 HX12        2.6200    2.1640  -10.0960 hc        1 2W7      0.075867
     48 HX11        4.1570    2.1450  -11.0500 hc        1 2W7      0.075867
     49 H32         2.6770   -1.5130   -3.3340 hn        1 2W7      0.467300
     50 H42         1.4050   -1.0460   -7.4540 hn        1 2W7      0.473300
@<TRIPOS>BOND
     1    1    2 1   
     2    1   25 1   
     3    2    3 ar  
     4    2    4 ar  
     5    3    5 ar  
     6    3   26 1   
     7    4    7 ar  
     8    4    8 1   
     9    5    6 ar  
    10    5   27 1   
    11    6    7 ar  
    12    6   28 1   
    13    7   29 1   
    14    8    9 2   
    15    8   10 1   
    16   10   11 1   
    17   10   30 1   
    18   10   49 1   
    19   11   12 1   
    20   11   31 1   
    21   11   32 1   
    22   12   13 2   
    23   12   14 1   
    24   14   15 1   
    25   14   33 1   
    26   14   50 1   
    27   15   16 1   
    28   15   20 1   
    29   15   23 1   
    30   16   17 1   
    31   16   34 1   
    32   16   35 1   
    33   17   18 1   
    34   17   24 1   
    35   17   36 1   
    36   18   19 1   
    37   18   37 1   
    38   18   38 1   
    39   19   20 1   
    40   19   21 1   
    41   19   39 1   
    42   20   40 1   
    43   20   41 1   
    44   21   22 1   
    45   21   42 1   
    46   21   43 1   
    47   22   23 1   
    48   22   24 1   
    49   22   44 1   
    50   23   45 1   
    51   23   46 1   
    52   24   47 1   
    53   24   48 1   
@<TRIPOS>SUBSTRUCTURE
     1 2W7         1 TEMP              0 ****  ****    0 ROOT
