@<TRIPOS>MOLECULE
2W8
   32    33     1     0     0
SMALL
bcc


@<TRIPOS>ATOM
      1 C1          0.0880   -0.2170    0.0650 cp        1 2W8     -0.069000
      2 C2          1.4480   -0.5630    0.0340 ca        1 2W8     -0.139000
      3 C3          2.1770   -0.6160    1.2180 ca        1 2W8     -0.137000
      4 C5          1.5650   -0.3340    2.4380 ca        1 2W8     -0.131000
      5 C6          0.2090    0.0090    2.4880 ca        1 2W8     -0.036300
      6 C7         -0.5200    0.0700    1.2930 ca        1 2W8     -0.111000
      7 C9         -0.4730    0.2800    3.7820 c3        1 2W8     -0.046100
      8 C10        -0.9830    1.7000    3.9030 c3        1 2W8     -0.195400
      9 C11        -2.1650    1.7790    4.8900 c         1 2W8      0.908600
     10 O12        -2.2080    2.7680    5.6740 o         1 2W8     -0.845800
     11 O14        -3.0400    0.8650    4.8480 o         1 2W8     -0.845800
     12 C19        -0.6920   -0.1670   -1.1700 cp        1 2W8     -0.013000
     13 C20        -2.0400   -0.5570   -1.1760 ca        1 2W8     -0.079000
     14 C22        -2.7890   -0.5120   -2.3500 ca        1 2W8     -0.141000
     15 C24        -2.2150   -0.0840   -3.5430 ca        1 2W8     -0.083000
     16 C26        -0.8650    0.3050   -3.5410 ca        1 2W8     -0.178200
     17 N27        -0.2360    0.7570   -4.8070 no        1 2W8      0.313200
     18 O28        -0.9020    0.8030   -5.8090 o         1 2W8     -0.222000
     19 O29         0.9270    1.0630   -4.8110 o         1 2W8     -0.222000
     20 C30        -0.1020    0.2730   -2.3630 ca        1 2W8     -0.069000
     21 H1          1.9350   -0.8000   -0.9220 ha        1 2W8      0.121000
     22 H2          3.2430   -0.8850    1.1890 ha        1 2W8      0.120000
     23 H3          2.1490   -0.3780    3.3700 ha        1 2W8      0.132000
     24 H4         -1.5830    0.3590    1.3380 ha        1 2W8      0.153000
     25 H5         -1.3580   -0.4140    3.8810 hc        1 2W8      0.062700
     26 H6          0.2210    0.0590    4.6360 hc        1 2W8      0.062700
     27 H7         -0.1660    2.3820    4.2440 hc        1 2W8      0.026700
     28 H8         -1.3500    2.0690    2.9120 hc        1 2W8      0.026700
     29 H10        -2.5100   -0.9020   -0.2390 ha        1 2W8      0.161000
     30 H11        -3.8470   -0.8160   -2.3360 ha        1 2W8      0.144000
     31 H12        -2.8050   -0.0470   -4.4730 ha        1 2W8      0.161000
     32 H13         0.9520    0.5990   -2.3730 ha        1 2W8      0.171000
@<TRIPOS>BOND
     1    1    2 ar  
     2    1    6 ar  
     3    1   12 1   
     4    2    3 ar  
     5    2   21 1   
     6    3    4 ar  
     7    3   22 1   
     8    4    5 ar  
     9    4   23 1   
    10    5    6 ar  
    11    5    7 1   
    12    6   24 1   
    13    7    8 1   
    14    7   25 1   
    15    7   26 1   
    16    8    9 1   
    17    8   27 1   
    18    8   28 1   
    19    9   10 1   
    20    9   11 1   
    21   12   13 ar  
    22   12   20 ar  
    23   13   14 ar  
    24   13   29 1   
    25   14   15 ar  
    26   14   30 1   
    27   15   16 ar  
    28   15   31 1   
    29   16   17 1   
    30   16   20 ar  
    31   17   18 1   
    32   17   19 1   
    33   20   32 1   
@<TRIPOS>SUBSTRUCTURE
     1 2W8         1 TEMP              0 ****  ****    0 ROOT
