@<TRIPOS>MOLECULE
2W8
   32    33     1     0     0
SMALL
bcc


@<TRIPOS>ATOM
      1 C1          0.0870   -0.2170    0.0640 cp        1 2W8     -0.069000
      2 C2          1.4460   -0.5640    0.0300 ca        1 2W8     -0.139000
      3 C3          2.1780   -0.6190    1.2130 ca        1 2W8     -0.137000
      4 C5          1.5680   -0.3370    2.4350 ca        1 2W8     -0.131000
      5 C6          0.2120    0.0060    2.4870 ca        1 2W8     -0.036300
      6 C7         -0.5190    0.0690    1.2920 ca        1 2W8     -0.111000
      7 C9         -0.4680    0.2760    3.7820 c3        1 2W8     -0.046100
      8 C10        -0.9760    1.6960    3.9060 c3        1 2W8     -0.195400
      9 C11        -2.1580    1.7760    4.8940 c         1 2W8      0.908600
     10 O12        -2.1980    2.7630    5.6800 o         1 2W8     -0.845800
     11 O14        -3.0340    0.8630    4.8520 o         1 2W8     -0.845800
     12 C19        -0.6940   -0.1650   -1.1710 cp        1 2W8     -0.013000
     13 C20        -2.0430   -0.5540   -1.1740 ca        1 2W8     -0.079000
     14 C22        -2.7940   -0.5070   -2.3480 ca        1 2W8     -0.141000
     15 C24        -2.2210   -0.0790   -3.5410 ca        1 2W8     -0.083000
     16 C26        -0.8700    0.3090   -3.5400 ca        1 2W8     -0.178200
     17 N27        -0.2430    0.7620   -4.8070 no        1 2W8      0.313200
     18 O28        -0.9110    0.8100   -5.8080 o         1 2W8     -0.222000
     19 O29         0.9210    1.0680   -4.8130 o         1 2W8     -0.222000
     20 C30        -0.1060    0.2760   -2.3640 ca        1 2W8     -0.069000
     21 H1          1.9320   -0.8010   -0.9270 ha        1 2W8      0.121000
     22 H2          3.2430   -0.8880    1.1820 ha        1 2W8      0.120000
     23 H3          2.1530   -0.3830    3.3650 ha        1 2W8      0.132000
     24 H4         -1.5820    0.3590    1.3400 ha        1 2W8      0.153000
     25 H5          0.2260    0.0540    4.6340 hc        1 2W8      0.062700
     26 H6         -1.3540   -0.4170    3.8810 hc        1 2W8      0.062700
     27 H7         -1.3450    2.0670    2.9160 hc        1 2W8      0.026700
     28 H8         -0.1590    2.3780    4.2460 hc        1 2W8      0.026700
     29 H10        -2.5110   -0.9000   -0.2370 ha        1 2W8      0.161000
     30 H11        -3.8520   -0.8100   -2.3330 ha        1 2W8      0.144000
     31 H12        -2.8120   -0.0410   -4.4700 ha        1 2W8      0.161000
     32 H13         0.9490    0.6010   -2.3750 ha        1 2W8      0.171000
@<TRIPOS>BOND
     1    1    2 ar  
     2    1    6 ar  
     3    1   12 1   
     4    2    3 ar  
     5    2   21 1   
     6    3    4 ar  
     7    3   22 1   
     8    4    5 ar  
     9    4   23 1   
    10    5    6 ar  
    11    5    7 1   
    12    6   24 1   
    13    7    8 1   
    14    7   25 1   
    15    7   26 1   
    16    8    9 1   
    17    8   27 1   
    18    8   28 1   
    19    9   10 1   
    20    9   11 1   
    21   12   13 ar  
    22   12   20 ar  
    23   13   14 ar  
    24   13   29 1   
    25   14   15 ar  
    26   14   30 1   
    27   15   16 ar  
    28   15   31 1   
    29   16   17 1   
    30   16   20 ar  
    31   17   18 1   
    32   17   19 1   
    33   20   32 1   
@<TRIPOS>SUBSTRUCTURE
     1 2W8         1 TEMP              0 ****  ****    0 ROOT
