@<TRIPOS>MOLECULE
2W9
   29    30     1     0     0
SMALL
bcc


@<TRIPOS>ATOM
      1 C1         -0.0490    0.0280   -0.0940 ca        1 2W9     -0.186500
      2 C2          1.3450    0.1110   -0.2410 ca        1 2W9     -0.095000
      3 C3          2.1750    0.1480    0.8830 ca        1 2W9     -0.040300
      4 C4          3.6550    0.2280    0.7490 c3        1 2W9     -0.049100
      5 C7          4.2270    1.5110    1.3130 c3        1 2W9     -0.196400
      6 C8          5.6470    1.3000    1.8780 c         1 2W9      0.908600
      7 O9          6.4630    2.2560    1.7690 o         1 2W9     -0.844300
      8 O11         5.9110    0.1980    2.4410 o         1 2W9     -0.844300
      9 C14         1.5970    0.0960    2.1600 ca        1 2W9     -0.095000
     10 C15         0.2140    0.0130    2.3090 ca        1 2W9     -0.145000
     11 C16        -0.6140   -0.0210    1.1910 ca        1 2W9     -0.118000
     12 C21        -0.9210   -0.0050   -1.2410 cc        1 2W9      0.418200
     13 O22        -0.3270   -0.0930   -2.5020 os        1 2W9     -0.308800
     14 C23        -1.3940   -0.1090   -3.4210 cc        1 2W9      0.093200
     15 N24        -1.0710   -0.1990   -4.8330 no        1 2W9      0.249500
     16 O25        -1.9880   -0.2090   -5.6160 o         1 2W9     -0.204500
     17 O26         0.0740   -0.2610   -5.1860 o         1 2W9     -0.204500
     18 C27        -2.6170   -0.0320   -2.7610 cd        1 2W9     -0.121300
     19 C29        -2.3120    0.0340   -1.3650 cd        1 2W9     -0.313300
     20 H1          1.7840    0.1510   -1.2510 ha        1 2W9      0.151000
     21 H2          3.9510    0.1240   -0.3280 hc        1 2W9      0.067700
     22 H3          4.1200   -0.6350    1.3110 hc        1 2W9      0.067700
     23 H4          4.2570    2.3050    0.5270 hc        1 2W9      0.027200
     24 H5          3.5920    1.8860    2.1560 hc        1 2W9      0.027200
     25 H7          2.2550    0.1230    3.0450 ha        1 2W9      0.161000
     26 H8         -0.2280   -0.0260    3.3160 ha        1 2W9      0.127000
     27 H9         -1.7040   -0.0870    1.3110 ha        1 2W9      0.121000
     28 H10        -3.6030   -0.0240   -3.2230 ha        1 2W9      0.178000
     29 H11        -3.0340    0.1050   -0.5560 ha        1 2W9      0.171000
@<TRIPOS>BOND
     1    1    2 ar  
     2    1   11 ar  
     3    1   12 1   
     4    2    3 ar  
     5    2   20 1   
     6    3    4 1   
     7    3    9 ar  
     8    4    5 1   
     9    4   21 1   
    10    4   22 1   
    11    5    6 1   
    12    5   23 1   
    13    5   24 1   
    14    6    7 1   
    15    6    8 1   
    16    9   10 ar  
    17    9   25 1   
    18   10   11 ar  
    19   10   26 1   
    20   11   27 1   
    21   12   13 1   
    22   12   19 2   
    23   13   14 1   
    24   14   15 1   
    25   14   18 2   
    26   15   16 1   
    27   15   17 1   
    28   18   19 1   
    29   18   28 1   
    30   19   29 1   
@<TRIPOS>SUBSTRUCTURE
     1 2W9         1 TEMP              0 ****  ****    0 ROOT
