@<TRIPOS>MOLECULE
2WA
  110   109     1     0     0
SMALL
bcc


@<TRIPOS>ATOM
      1 CBE         2.2210    4.2060   -0.4350 c3        1 2WA     -0.092100
      2 CBD         2.6530    2.9020    0.1830 c3        1 2WA     -0.080400
      3 CBC         3.8530    3.0860    1.0880 c3        1 2WA     -0.079400
      4 CBB         4.2830    1.7740    1.7070 c3        1 2WA     -0.079400
      5 CBA         5.4830    1.9590    2.6110 c3        1 2WA     -0.079400
      6 CAZ         5.9120    0.6470    3.2310 c3        1 2WA     -0.080400
      7 CAY         7.1150    0.8310    4.1300 c3        1 2WA     -0.075400
      8 CAX         7.5440   -0.4680    4.7810 c3        1 2WA     -0.048200
      9 CAW         6.5950   -0.9450    5.8140 c2        1 2WA     -0.174200
     10 CAV         6.6970   -2.1280    6.4290 c2        1 2WA     -0.175200
     11 CAU         7.7630   -3.1170    6.1400 c3        1 2WA     -0.048200
     12 CAT         7.7470   -4.3030    7.0820 c3        1 2WA     -0.075400
     13 CAS         8.1890   -3.9270    8.4800 c3        1 2WA     -0.080400
     14 CAR         8.1440   -5.1200    9.4100 c3        1 2WA     -0.078400
     15 CAQ         8.5840   -4.7410   10.8070 c3        1 2WA     -0.078400
     16 CAP         8.5560   -5.9380   11.7300 c3        1 2WA     -0.102400
     17 CAO         8.9110   -5.5160   13.1560 c3        1 2WA      0.335900
     18 OAD         7.9160   -4.7490   13.7800 oh        1 2WA     -0.632800
     19 OAN         9.0280   -6.7170   13.9090 os        1 2WA     -0.453600
     20 CAM         9.4590   -6.5430   15.2590 c3        1 2WA      0.108100
     21 CAL         8.2520   -6.2360   16.1540 c3        1 2WA      0.119400
     22 OAK         7.0540   -6.7530   15.6130 oh        1 2WA     -0.606800
     23 CBI        10.1520   -7.8500   15.6550 c3        1 2WA      0.128400
     24 OBJ         9.1390   -8.8340   15.8530 os        1 2WA     -0.467600
     25 CBK         9.6400  -10.1640   15.9210 c3        1 2WA      0.332900
     26 OCC        10.0990  -10.4610   14.6270 oh        1 2WA     -0.621800
     27 CBL         8.4820  -11.0450   16.3840 c3        1 2WA     -0.104400
     28 CBM         8.9540  -12.4670   16.5900 c3        1 2WA     -0.079400
     29 CBN         7.8010  -13.3750   16.9610 c3        1 2WA     -0.078400
     30 CBO         8.2740  -14.7960   17.1810 c3        1 2WA     -0.079400
     31 CBP         7.1220  -15.7070   17.5480 c3        1 2WA     -0.079400
     32 CBQ         7.5940  -17.1280   17.7690 c3        1 2WA     -0.079400
     33 CBR         6.4420  -18.0390   18.1360 c3        1 2WA     -0.079400
     34 CBS         6.9140  -19.4600   18.3570 c3        1 2WA     -0.079400
     35 CBT         5.7620  -20.3710   18.7240 c3        1 2WA     -0.079400
     36 CBU         6.2350  -21.7920   18.9450 c3        1 2WA     -0.079400
     37 CBV         5.0830  -22.7030   19.3120 c3        1 2WA     -0.079400
     38 CBW         5.5550  -24.1240   19.5330 c3        1 2WA     -0.079400
     39 CBX         4.4040  -25.0360   19.9000 c3        1 2WA     -0.080400
     40 CBY         4.8690  -26.4520   20.1210 c3        1 2WA     -0.092100
     41 H1          3.0460    4.6450   -1.0480 hc        1 2WA      0.032700
     42 H2          1.9420    4.9440    0.3550 hc        1 2WA      0.032700
     43 H3          1.3360    4.0480   -1.0980 hc        1 2WA      0.032700
     44 H4          1.8040    2.4650    0.7730 hc        1 2WA      0.038700
     45 H5          2.9050    2.1660   -0.6260 hc        1 2WA      0.038700
     46 H6          4.7030    3.5220    0.5000 hc        1 2WA      0.039200
     47 H7          3.6020    3.8200    1.8980 hc        1 2WA      0.039200
     48 H8          3.4330    1.3390    2.2950 hc        1 2WA      0.039700
     49 H9          4.5330    1.0400    0.8960 hc        1 2WA      0.039700
     50 H10         6.3340    2.3930    2.0220 hc        1 2WA      0.038700
     51 H11         5.2330    2.6940    3.4210 hc        1 2WA      0.038700
     52 H12         6.1560   -0.0900    2.4210 hc        1 2WA      0.041200
     53 H13         5.0630    0.2140    3.8250 hc        1 2WA      0.041200
     54 H14         7.9710    1.2340    3.5250 hc        1 2WA      0.040200
     55 H15         6.8810    1.5910    4.9210 hc        1 2WA      0.040200
     56 H16         7.6690   -1.2600    3.9920 hc        1 2WA      0.046700
     57 H17         8.5540   -0.3230    5.2560 hc        1 2WA      0.046700
     58 H18         5.7730   -0.2550    6.0690 ha        1 2WA      0.123000
     59 H19         5.9610   -2.4220    7.1950 ha        1 2WA      0.123000
     60 H20         8.7670   -2.6110    6.1890 hc        1 2WA      0.046700
     61 H21         7.6380   -3.4870    5.0840 hc        1 2WA      0.046700
     62 H22         8.4310   -5.0960    6.6780 hc        1 2WA      0.040200
     63 H23         6.7150   -4.7420    7.1190 hc        1 2WA      0.040200
     64 H24         9.2310   -3.5140    8.4470 hc        1 2WA      0.042700
     65 H25         7.5240   -3.1140    8.8760 hc        1 2WA      0.042700
     66 H26         7.1020   -5.5330    9.4430 hc        1 2WA      0.039700
     67 H27         8.8090   -5.9320    9.0130 hc        1 2WA      0.039700
     68 H28         7.9100   -3.9420   11.2170 hc        1 2WA      0.048200
     69 H29         9.6210   -4.3140   10.7730 hc        1 2WA      0.048200
     70 H30         9.2890   -6.7150   11.3920 hc        1 2WA      0.058200
     71 H31         7.5380   -6.4070   11.7290 hc        1 2WA      0.058200
     72 H32         9.8490   -4.8950   13.1990 h2        1 2WA      0.067700
     73 H33         7.1380   -5.3120   13.9160 ho        1 2WA      0.435000
     74 H34        10.2090   -5.7070   15.3270 h1        1 2WA      0.054700
     75 H35         8.4240   -6.6610   17.1790 h1        1 2WA      0.053700
     76 H36         8.0800   -5.1270   16.2160 h1        1 2WA      0.053700
     77 H37         7.2320   -7.6670   15.3530 ho        1 2WA      0.421000
     78 H38        10.7070   -7.7050   16.6190 h1        1 2WA      0.049200
     79 H39        10.8550   -8.1800   14.8460 h1        1 2WA      0.049200
     80 H40        10.5410  -10.2450   16.5900 h2        1 2WA      0.074700
     81 H41         9.3640  -10.3400   14.0130 ho        1 2WA      0.418000
     82 H42         8.0690  -10.6250   17.3370 hc        1 2WA      0.059200
     83 H43         7.6650  -11.0140   15.6180 hc        1 2WA      0.059200
     84 H44         9.4440  -12.8350   15.6490 hc        1 2WA      0.048200
     85 H45         9.7300  -12.4940   17.4000 hc        1 2WA      0.048200
     86 H46         7.3060  -12.9940   17.8920 hc        1 2WA      0.041200
     87 H47         7.0310  -13.3580   16.1450 hc        1 2WA      0.041200
     88 H48         8.7720  -15.1760   16.2510 hc        1 2WA      0.040700
     89 H49         9.0420  -14.8150   17.9990 hc        1 2WA      0.040700
     90 H50         6.3540  -15.6890   16.7300 hc        1 2WA      0.039700
     91 H51         6.6230  -15.3270   18.4780 hc        1 2WA      0.039700
     92 H52         8.0930  -17.5080   16.8390 hc        1 2WA      0.039700
     93 H53         8.3620  -17.1460   18.5870 hc        1 2WA      0.039700
     94 H54         5.9430  -17.6590   19.0660 hc        1 2WA      0.039700
     95 H55         5.6740  -18.0210   17.3180 hc        1 2WA      0.039700
     96 H56         7.4130  -19.8400   17.4270 hc        1 2WA      0.039700
     97 H57         7.6830  -19.4780   19.1740 hc        1 2WA      0.039700
     98 H58         5.2640  -19.9910   19.6540 hc        1 2WA      0.039700
     99 H59         4.9940  -20.3530   17.9060 hc        1 2WA      0.039700
    100 H60         7.0030  -21.8100   19.7620 hc        1 2WA      0.039700
    101 H61         6.7330  -22.1720   18.0150 hc        1 2WA      0.039700
    102 H62         4.5840  -22.3230   20.2420 hc        1 2WA      0.039700
    103 H63         4.3140  -22.6850   18.4950 hc        1 2WA      0.039700
    104 H64         6.3230  -24.1420   20.3500 hc        1 2WA      0.039700
    105 H65         6.0530  -24.5040   18.6030 hc        1 2WA      0.039700
    106 H66         3.6350  -25.0150   19.0830 hc        1 2WA      0.038700
    107 H67         3.9060  -24.6530   20.8300 hc        1 2WA      0.038700
    108 H68         4.0050  -27.1070   20.3910 hc        1 2WA      0.032700
    109 H69         5.6170  -26.4970   20.9490 hc        1 2WA      0.032700
    110 H70         5.3460  -26.8600   19.1970 hc        1 2WA      0.032700
@<TRIPOS>BOND
     1    1    2 1   
     2    1   41 1   
     3    1   42 1   
     4    1   43 1   
     5    2    3 1   
     6    2   44 1   
     7    2   45 1   
     8    3    4 1   
     9    3   46 1   
    10    3   47 1   
    11    4    5 1   
    12    4   48 1   
    13    4   49 1   
    14    5    6 1   
    15    5   50 1   
    16    5   51 1   
    17    6    7 1   
    18    6   52 1   
    19    6   53 1   
    20    7    8 1   
    21    7   54 1   
    22    7   55 1   
    23    8    9 1   
    24    8   56 1   
    25    8   57 1   
    26    9   10 2   
    27    9   58 1   
    28   10   11 1   
    29   10   59 1   
    30   11   12 1   
    31   11   60 1   
    32   11   61 1   
    33   12   13 1   
    34   12   62 1   
    35   12   63 1   
    36   13   14 1   
    37   13   64 1   
    38   13   65 1   
    39   14   15 1   
    40   14   66 1   
    41   14   67 1   
    42   15   16 1   
    43   15   68 1   
    44   15   69 1   
    45   16   17 1   
    46   16   70 1   
    47   16   71 1   
    48   17   18 1   
    49   17   19 1   
    50   17   72 1   
    51   18   73 1   
    52   19   20 1   
    53   20   21 1   
    54   20   23 1   
    55   20   74 1   
    56   21   22 1   
    57   21   75 1   
    58   21   76 1   
    59   22   77 1   
    60   23   24 1   
    61   23   78 1   
    62   23   79 1   
    63   24   25 1   
    64   25   26 1   
    65   25   27 1   
    66   25   80 1   
    67   26   81 1   
    68   27   28 1   
    69   27   82 1   
    70   27   83 1   
    71   28   29 1   
    72   28   84 1   
    73   28   85 1   
    74   29   30 1   
    75   29   86 1   
    76   29   87 1   
    77   30   31 1   
    78   30   88 1   
    79   30   89 1   
    80   31   32 1   
    81   31   90 1   
    82   31   91 1   
    83   32   33 1   
    84   32   92 1   
    85   32   93 1   
    86   33   34 1   
    87   33   94 1   
    88   33   95 1   
    89   34   35 1   
    90   34   96 1   
    91   34   97 1   
    92   35   36 1   
    93   35   98 1   
    94   35   99 1   
    95   36   37 1   
    96   36  100 1   
    97   36  101 1   
    98   37   38 1   
    99   37  102 1   
   100   37  103 1   
   101   38   39 1   
   102   38  104 1   
   103   38  105 1   
   104   39   40 1   
   105   39  106 1   
   106   39  107 1   
   107   40  108 1   
   108   40  109 1   
   109   40  110 1   
@<TRIPOS>SUBSTRUCTURE
     1 2WA         1 TEMP              0 ****  ****    0 ROOT
