@<TRIPOS>MOLECULE
2WA
  110   109     1     0     0
SMALL
bcc


@<TRIPOS>ATOM
      1 CBE         3.8980    2.4650   -1.3960 c3        1 2WA     -0.092100
      2 CBD         4.5480    1.3130   -0.6750 c3        1 2WA     -0.080400
      3 CBC         4.0750    1.2160    0.7600 c3        1 2WA     -0.079400
      4 CBB         4.7310    0.0580    1.4800 c3        1 2WA     -0.079400
      5 CBA         4.2570   -0.0370    2.9140 c3        1 2WA     -0.079400
      6 CAZ         4.9130   -1.1960    3.6340 c3        1 2WA     -0.079400
      7 CAY         4.4390   -1.2890    5.0690 c3        1 2WA     -0.077400
      8 CAX         5.0980   -2.4490    5.7880 c3        1 2WA     -0.049200
      9 CAW         4.6500   -2.5650    7.1950 c2        1 2WA     -0.174200
     10 CAV         5.0130   -3.5610    8.0110 c2        1 2WA     -0.174200
     11 CAU         5.8990   -4.6760    7.6040 c3        1 2WA     -0.048200
     12 CAT         6.2780   -5.5870    8.7540 c3        1 2WA     -0.075400
     13 CAS         7.2270   -4.9160    9.7230 c3        1 2WA     -0.080400
     14 CAR         7.5740   -5.8330   10.8770 c3        1 2WA     -0.078400
     15 CAQ         8.5230   -5.1590   11.8440 c3        1 2WA     -0.078400
     16 CAP         8.8800   -6.0810   12.9880 c3        1 2WA     -0.104400
     17 CAO         9.7660   -5.3540   14.0000 c3        1 2WA      0.338900
     18 OAD         9.0720   -4.4310   14.7960 oh        1 2WA     -0.631800
     19 OAN        10.2600   -6.3550   14.8810 os        1 2WA     -0.466600
     20 CAM        11.2120   -5.9040   15.8450 c3        1 2WA      0.093100
     21 CAL        10.4770   -5.3480   17.0710 c3        1 2WA      0.116400
     22 OAK         9.2110   -5.9520   17.2350 oh        1 2WA     -0.606800
     23 CBI        12.0610   -7.1320   16.2030 c3        1 2WA      0.130400
     24 OBJ        11.2290   -8.0930   16.8400 os        1 2WA     -0.472600
     25 CBK        11.1590   -9.3630   16.1990 c3        1 2WA      0.337900
     26 OCC        10.8460   -9.1300   14.8530 oh        1 2WA     -0.624800
     27 CBL        10.0960  -10.1600   16.9530 c3        1 2WA     -0.104400
     28 CBM        10.0530  -11.5860   16.4510 c3        1 2WA     -0.078400
     29 CBN         8.9440  -12.3670   17.1220 c3        1 2WA     -0.078400
     30 CBO         8.9090  -13.7990   16.6320 c3        1 2WA     -0.079400
     31 CBP         7.7980  -14.5800   17.2990 c3        1 2WA     -0.079400
     32 CBQ         7.7640  -16.0130   16.8110 c3        1 2WA     -0.079400
     33 CBR         6.6530  -16.7950   17.4780 c3        1 2WA     -0.079400
     34 CBS         6.6200  -18.2270   16.9910 c3        1 2WA     -0.079400
     35 CBT         5.5100  -19.0090   17.6590 c3        1 2WA     -0.079400
     36 CBU         5.4760  -20.4420   17.1710 c3        1 2WA     -0.079400
     37 CBV         4.3660  -21.2240   17.8400 c3        1 2WA     -0.079400
     38 CBW         4.3330  -22.6570   17.3530 c3        1 2WA     -0.079400
     39 CBX         3.2230  -23.4410   18.0210 c3        1 2WA     -0.080400
     40 CBY         3.1860  -24.8680   17.5390 c3        1 2WA     -0.092100
     41 H1          4.1380    3.4320   -0.8910 hc        1 2WA      0.032700
     42 H2          2.7880    2.3450   -1.4100 hc        1 2WA      0.032700
     43 H3          4.2600    2.5180   -2.4510 hc        1 2WA      0.032700
     44 H4          5.6630    1.4380   -0.6930 hc        1 2WA      0.038700
     45 H5          4.3160    0.3540   -1.2100 hc        1 2WA      0.038700
     46 H6          2.9610    1.0890    0.7790 hc        1 2WA      0.039700
     47 H7          4.3080    2.1740    1.2970 hc        1 2WA      0.039700
     48 H8          5.8460    0.1850    1.4600 hc        1 2WA      0.039700
     49 H9          4.4980   -0.8990    0.9430 hc        1 2WA      0.039700
     50 H10         4.4900    0.9200    3.4510 hc        1 2WA      0.039700
     51 H11         3.1430   -0.1640    2.9340 hc        1 2WA      0.039700
     52 H12         6.0280   -1.0680    3.6140 hc        1 2WA      0.039700
     53 H13         4.6800   -2.1530    3.0970 hc        1 2WA      0.039700
     54 H14         4.6720   -0.3320    5.6060 hc        1 2WA      0.041700
     55 H15         3.3250   -1.4180    5.0900 hc        1 2WA      0.041700
     56 H16         4.8740   -3.4060    5.2420 hc        1 2WA      0.047200
     57 H17         6.2150   -2.3190    5.7630 hc        1 2WA      0.047200
     58 H18         3.9820   -1.7660    7.5560 ha        1 2WA      0.122000
     59 H19         4.6470   -3.5890    9.0510 ha        1 2WA      0.123000
     60 H20         5.3770   -5.2840    6.8140 hc        1 2WA      0.047700
     61 H21         6.8310   -4.2620    7.1310 hc        1 2WA      0.047700
     62 H22         6.7630   -6.5120    8.3410 hc        1 2WA      0.040200
     63 H23         5.3530   -5.9130    9.2990 hc        1 2WA      0.040200
     64 H24         8.1650   -4.6170    9.1850 hc        1 2WA      0.042700
     65 H25         6.7580   -3.9750   10.1160 hc        1 2WA      0.042700
     66 H26         8.0420   -6.7730   10.4830 hc        1 2WA      0.040200
     67 H27         6.6360   -6.1310   11.4150 hc        1 2WA      0.040200
     68 H28         8.0520   -4.2260   12.2550 hc        1 2WA      0.048200
     69 H29         9.4550   -4.8490   11.3030 hc        1 2WA      0.048200
     70 H30         7.9510   -6.4380   13.5030 hc        1 2WA      0.058200
     71 H31         9.4280   -6.9830   12.6110 hc        1 2WA      0.058200
     72 H32        10.5970   -4.7750   13.5080 h2        1 2WA      0.070700
     73 H33         8.4670   -4.9220   15.3730 ho        1 2WA      0.435000
     74 H34        11.8770   -5.1130   15.4030 h1        1 2WA      0.055700
     75 H35        10.2550   -4.2550   16.9370 h1        1 2WA      0.054200
     76 H36        11.1010   -5.5080   17.9910 h1        1 2WA      0.054200
     77 H37         9.3440   -6.9090   17.1770 ho        1 2WA      0.419000
     78 H38        12.8390   -6.8380   16.9570 h1        1 2WA      0.059700
     79 H39        12.5420   -7.5460   15.2800 h1        1 2WA      0.059700
     80 H40        12.1620   -9.8760   16.1950 h2        1 2WA      0.071700
     81 H41        10.0670   -8.5570   14.8140 ho        1 2WA      0.430000
     82 H42         9.0990   -9.6670   16.8120 hc        1 2WA      0.057700
     83 H43        10.3360  -10.1350   18.0470 hc        1 2WA      0.057700
     84 H44         9.8990  -11.5810   15.3380 hc        1 2WA      0.048200
     85 H45        11.0380  -12.0850   16.6470 hc        1 2WA      0.048200
     86 H46         7.9570  -11.8750   16.9150 hc        1 2WA      0.040700
     87 H47         9.0940  -12.3530   18.2340 hc        1 2WA      0.040700
     88 H48         9.8950  -14.2920   16.8410 hc        1 2WA      0.040700
     89 H49         8.7630  -13.8120   15.5190 hc        1 2WA      0.040700
     90 H50         7.9440  -14.5660   18.4120 hc        1 2WA      0.039700
     91 H51         6.8120  -14.0880   17.0890 hc        1 2WA      0.039700
     92 H52         7.6180  -16.0270   15.6980 hc        1 2WA      0.039700
     93 H53         8.7500  -16.5050   17.0210 hc        1 2WA      0.039700
     94 H54         6.7990  -16.7790   18.5910 hc        1 2WA      0.039700
     95 H55         5.6680  -16.3020   17.2670 hc        1 2WA      0.039700
     96 H56         6.4740  -18.2420   15.8780 hc        1 2WA      0.039700
     97 H57         7.6060  -18.7190   17.2010 hc        1 2WA      0.039700
     98 H58         5.6550  -18.9940   18.7710 hc        1 2WA      0.039700
     99 H59         4.5230  -18.5170   17.4480 hc        1 2WA      0.039700
    100 H60         5.3310  -20.4580   16.0590 hc        1 2WA      0.039700
    101 H61         6.4620  -20.9340   17.3820 hc        1 2WA      0.039700
    102 H62         3.3800  -20.7330   17.6280 hc        1 2WA      0.039700
    103 H63         4.5110  -21.2080   18.9520 hc        1 2WA      0.039700
    104 H64         5.3190  -23.1490   17.5640 hc        1 2WA      0.039700
    105 H65         4.1870  -22.6730   16.2410 hc        1 2WA      0.039700
    106 H66         2.2380  -22.9460   17.8100 hc        1 2WA      0.038700
    107 H67         3.3690  -23.4220   19.1330 hc        1 2WA      0.038700
    108 H68         2.3620  -25.4270   18.0430 hc        1 2WA      0.032700
    109 H69         4.1510  -25.3840   17.7630 hc        1 2WA      0.032700
    110 H70         3.0160  -24.9080   16.4360 hc        1 2WA      0.032700
@<TRIPOS>BOND
     1    1    2 1   
     2    1   41 1   
     3    1   42 1   
     4    1   43 1   
     5    2    3 1   
     6    2   44 1   
     7    2   45 1   
     8    3    4 1   
     9    3   46 1   
    10    3   47 1   
    11    4    5 1   
    12    4   48 1   
    13    4   49 1   
    14    5    6 1   
    15    5   50 1   
    16    5   51 1   
    17    6    7 1   
    18    6   52 1   
    19    6   53 1   
    20    7    8 1   
    21    7   54 1   
    22    7   55 1   
    23    8    9 1   
    24    8   56 1   
    25    8   57 1   
    26    9   10 2   
    27    9   58 1   
    28   10   11 1   
    29   10   59 1   
    30   11   12 1   
    31   11   60 1   
    32   11   61 1   
    33   12   13 1   
    34   12   62 1   
    35   12   63 1   
    36   13   14 1   
    37   13   64 1   
    38   13   65 1   
    39   14   15 1   
    40   14   66 1   
    41   14   67 1   
    42   15   16 1   
    43   15   68 1   
    44   15   69 1   
    45   16   17 1   
    46   16   70 1   
    47   16   71 1   
    48   17   18 1   
    49   17   19 1   
    50   17   72 1   
    51   18   73 1   
    52   19   20 1   
    53   20   21 1   
    54   20   23 1   
    55   20   74 1   
    56   21   22 1   
    57   21   75 1   
    58   21   76 1   
    59   22   77 1   
    60   23   24 1   
    61   23   78 1   
    62   23   79 1   
    63   24   25 1   
    64   25   26 1   
    65   25   27 1   
    66   25   80 1   
    67   26   81 1   
    68   27   28 1   
    69   27   82 1   
    70   27   83 1   
    71   28   29 1   
    72   28   84 1   
    73   28   85 1   
    74   29   30 1   
    75   29   86 1   
    76   29   87 1   
    77   30   31 1   
    78   30   88 1   
    79   30   89 1   
    80   31   32 1   
    81   31   90 1   
    82   31   91 1   
    83   32   33 1   
    84   32   92 1   
    85   32   93 1   
    86   33   34 1   
    87   33   94 1   
    88   33   95 1   
    89   34   35 1   
    90   34   96 1   
    91   34   97 1   
    92   35   36 1   
    93   35   98 1   
    94   35   99 1   
    95   36   37 1   
    96   36  100 1   
    97   36  101 1   
    98   37   38 1   
    99   37  102 1   
   100   37  103 1   
   101   38   39 1   
   102   38  104 1   
   103   38  105 1   
   104   39   40 1   
   105   39  106 1   
   106   39  107 1   
   107   40  108 1   
   108   40  109 1   
   109   40  110 1   
@<TRIPOS>SUBSTRUCTURE
     1 2WA         1 TEMP              0 ****  ****    0 ROOT
