@<TRIPOS>MOLECULE
2WB
   36    38     1     0     0
SMALL
bcc


@<TRIPOS>ATOM
      1 O1          0.1350    0.0000    0.2240 os        1 2WB     -0.294800
      2 C2          1.5310   -0.0050    0.2510 cc        1 2WB      0.358200
      3 C3          2.2080   -0.0300   -1.0270 ca        1 2WB     -0.179500
      4 C4          1.7700   -0.8380   -2.0920 ca        1 2WB      0.036700
      5 C5          2.4300   -0.7300   -3.3330 ca        1 2WB     -0.131000
      6 C7          3.5230    0.1090   -3.4910 ca        1 2WB     -0.122000
      7 C8          3.9880    0.8680   -2.4110 ca        1 2WB     -0.174000
      8 C9          3.3270    0.8070   -1.1920 ca        1 2WB     -0.110000
      9 C13         0.6680   -1.8160   -1.9710 c3        1 2WB     -0.194100
     10 C14        -0.5810   -1.4080   -2.8010 c         1 2WB      0.931600
     11 O15        -1.6240   -1.0980   -2.1610 o         1 2WB     -0.833300
     12 O17        -0.4840   -1.4520   -4.0570 o         1 2WB     -0.833300
     13 C20         1.9760    0.0350    1.5680 cd        1 2WB     -0.296300
     14 C21         0.8050    0.0480    2.4030 cd        1 2WB     -0.249300
     15 C22        -0.2950    0.0190    1.5550 cc        1 2WB      0.275200
     16 C23        -1.7200   -0.0090    1.7730 ca        1 2WB     -0.119500
     17 C24        -2.6120   -0.0380    0.6820 ca        1 2WB     -0.029000
     18 C26        -3.9860   -0.0420    0.9510 ca        1 2WB     -0.165200
     19 N27        -4.9730   -0.0040   -0.1640 no        1 2WB      0.315200
     20 O28        -6.0100   -0.6060   -0.0280 o         1 2WB     -0.207000
     21 O29        -4.7490    0.6640   -1.1310 o         1 2WB     -0.207000
     22 C30        -4.4820   -0.0680    2.2680 ca        1 2WB     -0.091000
     23 C32        -3.5830   -0.0480    3.3270 ca        1 2WB     -0.155000
     24 C34        -2.2110   -0.0100    3.0850 ca        1 2WB     -0.101000
     25 H1          2.0140   -1.3020   -4.1810 ha        1 2WB      0.173000
     26 H2          4.0230    0.1850   -4.4670 ha        1 2WB      0.116000
     27 H3          4.8620    1.5220   -2.5320 ha        1 2WB      0.112000
     28 H4          3.6670    1.4220   -0.3460 ha        1 2WB      0.117000
     29 H5          1.0120   -2.8060   -2.3700 hc        1 2WB      0.045700
     30 H6          0.3560   -1.9560   -0.9060 hc        1 2WB      0.045700
     31 H8          3.0050    0.0420    1.9090 ha        1 2WB      0.151000
     32 H9          0.7980    0.0690    3.4880 ha        1 2WB      0.144000
     33 H10        -2.2200   -0.0900   -0.3660 ha        1 2WB      0.258000
     34 H11        -5.5670   -0.1090    2.4530 ha        1 2WB      0.151000
     35 H12        -3.9580   -0.0640    4.3600 ha        1 2WB      0.130000
     36 H13        -1.5060    0.0120    3.9300 ha        1 2WB      0.132000
@<TRIPOS>BOND
     1    1    2 1   
     2    1   15 1   
     3    2    3 1   
     4    2   13 2   
     5    3    4 ar  
     6    3    8 ar  
     7    4    5 ar  
     8    4    9 1   
     9    5    6 ar  
    10    5   25 1   
    11    6    7 ar  
    12    6   26 1   
    13    7    8 ar  
    14    7   27 1   
    15    8   28 1   
    16    9   10 1   
    17    9   29 1   
    18    9   30 1   
    19   10   11 1   
    20   10   12 1   
    21   13   14 1   
    22   13   31 1   
    23   14   15 2   
    24   14   32 1   
    25   15   16 1   
    26   16   17 ar  
    27   16   24 ar  
    28   17   18 ar  
    29   17   33 1   
    30   18   19 1   
    31   18   22 ar  
    32   19   20 1   
    33   19   21 1   
    34   22   23 ar  
    35   22   34 1   
    36   23   24 ar  
    37   23   35 1   
    38   24   36 1   
@<TRIPOS>SUBSTRUCTURE
     1 2WB         1 TEMP              0 ****  ****    0 ROOT
