@<TRIPOS>MOLECULE
2WC
   50    53     1     0     0
SMALL
bcc


@<TRIPOS>ATOM
      1 CAW         0.1320   -0.3700    0.6760 c3        1 2WC     -0.072900
      2 CAX         1.5190   -0.3870    1.2850 c3        1 2WC     -0.075900
      3 CAY         1.4710   -0.1490    2.7810 c3        1 2WC     -0.076400
      4 CAZ         0.5580   -1.1450    3.4660 c3        1 2WC     -0.075900
      5 CBA        -0.8300   -1.1270    2.8600 c3        1 2WC     -0.072900
      6 CAV        -0.7760   -1.3810    1.3610 c3        1 2WC     -0.072700
      7 CAU        -2.1710   -1.3070    0.7470 c3        1 2WC      0.143400
      8 O6         -2.8390   -2.5140    1.1540 os        1 2WC     -0.452100
      9 C6         -4.1310   -2.6970    0.7120 ca        1 2WC      0.702600
     10 N1         -4.7730   -1.7940   -0.0530 nb        1 2WC     -0.816000
     11 C2         -6.0810   -2.1070   -0.4400 ca        1 2WC      0.847900
     12 N2         -6.6890   -1.2020   -1.3490 nh        1 2WC     -0.904500
     13 N3         -6.8100   -3.2180   -0.0860 nb        1 2WC     -0.717000
     14 C4         -6.1440   -4.1160    0.6940 ca        1 2WC      0.601300
     15 N9         -6.5870   -5.3450    1.2270 nc        1 2WC     -0.659700
     16 C5         -4.7580   -3.8940    1.1220 ca        1 2WC     -0.373800
     17 N7         -4.3930   -5.0030    1.8750 na        1 2WC     -0.234300
     18 C8         -5.5290   -5.8360    1.9360 cd        1 2WC      0.539400
     19 CAJ        -5.4870   -7.1230    2.6380 ca        1 2WC     -0.182900
     20 CAK        -5.9810   -8.2460    1.9600 ca        1 2WC     -0.100000
     21 CAL        -5.9030   -9.5020    2.5540 ca        1 2WC     -0.173000
     22 CAM        -5.3220   -9.6380    3.8140 ca        1 2WC     -0.080000
     23 CAN        -4.8320   -8.5250    4.5040 ca        1 2WC     -0.129600
     24 CAQ        -4.1800   -8.7720    5.8640 c         1 2WC      0.909200
     25 OAS        -3.2430   -8.0100    6.2320 o         1 2WC     -0.824300
     26 OAR        -4.6040   -9.7520    6.5360 o         1 2WC     -0.824300
     27 CAO        -4.9400   -7.2470    3.9310 ca        1 2WC     -0.019300
     28 CAP        -4.5040   -6.0590    4.7040 c3        1 2WC     -0.063800
     29 HAW1        0.2000   -0.6060   -0.4180 hc        1 2WC      0.043950
     30 HAW2       -0.3110    0.6560    0.7760 hc        1 2WC      0.043950
     31 HAX1        2.1490    0.4020    0.7990 hc        1 2WC      0.040450
     32 HAX2        2.0030   -1.3790    1.0810 hc        1 2WC      0.040450
     33 HAV        -0.3660   -2.4160    1.1900 hc        1 2WC      0.068700
     34 HAY1        2.5050   -0.2310    3.2070 hc        1 2WC      0.035700
     35 HAY2        1.1050    0.8920    2.9810 hc        1 2WC      0.035700
     36 HAZ1        0.9920   -2.1760    3.3750 hc        1 2WC      0.040450
     37 HAZ2        0.4910   -0.9040    4.5590 hc        1 2WC      0.040450
     38 HBA1       -1.4680   -1.9130    3.3410 hc        1 2WC      0.043950
     39 HBA2       -1.3110   -0.1320    3.0540 hc        1 2WC      0.043950
     40 HAU1       -2.1140   -1.2750   -0.3720 h1        1 2WC      0.051200
     41 HAU2       -2.7380   -0.4190    1.1260 h1        1 2WC      0.051200
     42 H21N       -7.6850   -1.2560   -1.3630 hn        1 2WC      0.399800
     43 H22N       -6.3460   -0.2690   -1.2790 hn        1 2WC      0.399800
     44 H7         -3.5620   -5.1080    2.4000 hn        1 2WC      0.326700
     45 HAK        -6.4290   -8.1320    0.9630 ha        1 2WC      0.130000
     46 HAL        -6.2970  -10.3820    2.0280 ha        1 2WC      0.115000
     47 HAM        -5.2500  -10.6230    4.3040 ha        1 2WC      0.155000
     48 HAP1       -5.1010   -5.1510    4.4440 hc        1 2WC      0.051367
     49 HAP2       -3.4170   -5.8630    4.5250 hc        1 2WC      0.051367
     50 HAP3       -4.6140   -6.2550    5.8030 hc        1 2WC      0.051367
@<TRIPOS>BOND
     1    1    2 1   
     2    1    6 1   
     3    1   29 1   
     4    1   30 1   
     5    2    3 1   
     6    2   31 1   
     7    2   32 1   
     8    3    4 1   
     9    3   34 1   
    10    3   35 1   
    11    4    5 1   
    12    4   36 1   
    13    4   37 1   
    14    5    6 1   
    15    5   38 1   
    16    5   39 1   
    17    6    7 1   
    18    6   33 1   
    19    7    8 1   
    20    7   40 1   
    21    7   41 1   
    22    8    9 1   
    23    9   10 ar  
    24    9   16 ar  
    25   10   11 ar  
    26   11   12 1   
    27   11   13 ar  
    28   12   42 1   
    29   12   43 1   
    30   13   14 ar  
    31   14   15 1   
    32   14   16 ar  
    33   15   18 2   
    34   16   17 1   
    35   17   18 1   
    36   17   44 1   
    37   18   19 1   
    38   19   20 ar  
    39   19   27 ar  
    40   20   21 ar  
    41   20   45 1   
    42   21   22 ar  
    43   21   46 1   
    44   22   23 ar  
    45   22   47 1   
    46   23   24 1   
    47   23   27 ar  
    48   24   25 1   
    49   24   26 1   
    50   27   28 1   
    51   28   48 1   
    52   28   49 1   
    53   28   50 1   
@<TRIPOS>SUBSTRUCTURE
     1 2WC         1 TEMP              0 ****  ****    0 ROOT
