@<TRIPOS>MOLECULE
2WC
   50    53     1     0     0
SMALL
bcc


@<TRIPOS>ATOM
      1 CAW         0.1420   -0.3870    0.6480 c3        1 2WC     -0.072900
      2 CAX         1.5370   -0.4230    1.2390 c3        1 2WC     -0.075900
      3 CAY         1.5100   -0.2120    2.7390 c3        1 2WC     -0.076400
      4 CAZ         0.6000   -1.2150    3.4180 c3        1 2WC     -0.075900
      5 CBA        -0.7950   -1.1780    2.8300 c3        1 2WC     -0.072900
      6 CAV        -0.7620   -1.4050    1.3270 c3        1 2WC     -0.072700
      7 CAU        -2.1640   -1.3120    0.7330 c3        1 2WC      0.143400
      8 O6         -2.8320   -2.5270    1.1200 os        1 2WC     -0.452100
      9 C6         -4.1470   -2.6720    0.7350 ca        1 2WC      0.702600
     10 N1         -4.7860   -1.7630   -0.0250 nb        1 2WC     -0.816000
     11 C2         -6.1230   -2.0300   -0.3420 ca        1 2WC      0.848900
     12 N2         -6.8090   -1.0010   -1.0380 nv        1 2WC     -0.905500
     13 N3         -6.8510   -3.1460   -0.0030 nb        1 2WC     -0.718000
     14 C4         -6.1870   -4.0520    0.7680 ca        1 2WC      0.602300
     15 N9         -6.6330   -5.2820    1.2970 nc        1 2WC     -0.659700
     16 C5         -4.7910   -3.8490    1.1740 ca        1 2WC     -0.374800
     17 N7         -4.4250   -4.9680    1.9120 na        1 2WC     -0.234300
     18 C8         -5.5690   -5.7890    1.9840 cd        1 2WC      0.539400
     19 CAJ        -5.5280   -7.0860    2.6700 ca        1 2WC     -0.182900
     20 CAK        -6.0570   -8.1930    1.9910 ca        1 2WC     -0.100000
     21 CAL        -5.9790   -9.4570    2.5650 ca        1 2WC     -0.173000
     22 CAM        -5.3640   -9.6200    3.8050 ca        1 2WC     -0.080000
     23 CAN        -4.8400   -8.5240    4.4970 ca        1 2WC     -0.129600
     24 CAQ        -4.1510   -8.7990    5.8320 c         1 2WC      0.909200
     25 OAS        -3.1940   -8.0530    6.1830 o         1 2WC     -0.823800
     26 OAR        -4.5660   -9.7850    6.5020 o         1 2WC     -0.823800
     27 CAO        -4.9490   -7.2350    3.9460 ca        1 2WC     -0.018300
     28 CAP        -4.4780   -6.0650    4.7250 c3        1 2WC     -0.064800
     29 HAW1        0.1940   -0.6030   -0.4510 hc        1 2WC      0.043950
     30 HAW2       -0.2930    0.6390    0.7720 hc        1 2WC      0.043950
     31 HAX1        2.0120   -1.4130    1.0100 hc        1 2WC      0.040200
     32 HAX2        2.1650    0.3720    0.7580 hc        1 2WC      0.040200
     33 HAV        -0.3600   -2.4390    1.1310 hc        1 2WC      0.068700
     34 HAY1        1.1530    0.8280    2.9630 hc        1 2WC      0.035700
     35 HAY2        2.5490   -0.3070    3.1490 hc        1 2WC      0.035700
     36 HAZ1        1.0270   -2.2460    3.3020 hc        1 2WC      0.040200
     37 HAZ2        0.5490   -0.9940    4.5160 hc        1 2WC      0.040200
     38 HBA1       -1.4320   -1.9690    3.3060 hc        1 2WC      0.043950
     39 HBA2       -1.2680   -0.1850    3.0490 hc        1 2WC      0.043950
     40 HAU1       -2.7230   -0.4300    1.1370 h1        1 2WC      0.051200
     41 HAU2       -2.1220   -1.2570   -0.3860 h1        1 2WC      0.051200
     42 H21N       -7.6260   -1.3140   -1.5160 hn        1 2WC      0.400300
     43 H22N       -6.2180   -0.4260   -1.5970 hn        1 2WC      0.400300
     44 H7         -3.5900   -5.0830    2.4280 hn        1 2WC      0.326700
     45 HAK        -6.5310   -8.0580    1.0080 ha        1 2WC      0.129000
     46 HAL        -6.4010  -10.3240    2.0380 ha        1 2WC      0.115000
     47 HAM        -5.2920  -10.6130    4.2790 ha        1 2WC      0.155000
     48 HAP1       -3.3920   -5.8810    4.5230 hc        1 2WC      0.051700
     49 HAP2       -4.5630   -6.2770    5.8240 hc        1 2WC      0.051700
     50 HAP3       -5.0680   -5.1460    4.4940 hc        1 2WC      0.051700
@<TRIPOS>BOND
     1    1    2 1   
     2    1    6 1   
     3    1   29 1   
     4    1   30 1   
     5    2    3 1   
     6    2   31 1   
     7    2   32 1   
     8    3    4 1   
     9    3   34 1   
    10    3   35 1   
    11    4    5 1   
    12    4   36 1   
    13    4   37 1   
    14    5    6 1   
    15    5   38 1   
    16    5   39 1   
    17    6    7 1   
    18    6   33 1   
    19    7    8 1   
    20    7   40 1   
    21    7   41 1   
    22    8    9 1   
    23    9   10 ar  
    24    9   16 ar  
    25   10   11 ar  
    26   11   12 1   
    27   11   13 ar  
    28   12   42 1   
    29   12   43 1   
    30   13   14 ar  
    31   14   15 1   
    32   14   16 ar  
    33   15   18 2   
    34   16   17 1   
    35   17   18 1   
    36   17   44 1   
    37   18   19 1   
    38   19   20 ar  
    39   19   27 ar  
    40   20   21 ar  
    41   20   45 1   
    42   21   22 ar  
    43   21   46 1   
    44   22   23 ar  
    45   22   47 1   
    46   23   24 1   
    47   23   27 ar  
    48   24   25 1   
    49   24   26 1   
    50   27   28 1   
    51   28   48 1   
    52   28   49 1   
    53   28   50 1   
@<TRIPOS>SUBSTRUCTURE
     1 2WC         1 TEMP              0 ****  ****    0 ROOT
