@<TRIPOS>MOLECULE
2WD
   49    48     1     0     0
SMALL
bcc


@<TRIPOS>ATOM
      1 C1         -0.4850    0.0540    0.3570 c3        1 2WD      0.113400
      2 C2          0.9160    0.6610    0.2480 c3        1 2WD      0.074100
      3 C3          1.2980    1.4390    1.5130 c3        1 2WD      0.134400
      4 O11        -0.4930   -1.1810    1.0390 oh        1 2WD     -0.603800
      5 C21         1.8740   -1.0430   -1.1430 c3        1 2WD      0.328900
      6 O21         1.9170   -0.3470    0.0960 os        1 2WD     -0.460600
      7 C22         2.8090   -2.2430   -1.0000 c3        1 2WD     -0.103400
      8 O22         2.2880   -0.1060   -2.1060 oh        1 2WD     -0.623800
      9 C23         2.7590   -3.1000   -2.2440 c3        1 2WD     -0.080400
     10 C24         3.7470   -4.2440   -2.1600 c3        1 2WD     -0.078400
     11 C25         3.6920   -5.1110   -3.3920 c3        1 2WD     -0.093100
     12 C31         2.2540   -0.0970    3.0830 c3        1 2WD      0.321900
     13 O31         1.1110    0.6570    2.6840 os        1 2WD     -0.466600
     14 C32         1.7630   -1.1810    4.0440 c3        1 2WD     -0.111400
     15 O32         3.1010    0.8470    3.6900 oh        1 2WD     -0.620800
     16 C33         1.8910   -2.5550    3.4240 c3        1 2WD     -0.082400
     17 C34         1.3540   -3.6230    4.3530 c3        1 2WD     -0.078400
     18 C35         1.4910   -5.0020    3.7420 c3        1 2WD     -0.080400
     19 C36         0.9580   -6.0690    4.6630 c3        1 2WD     -0.093100
     20 H1         -0.9000   -0.1780   -0.6610 h1        1 2WD      0.048200
     21 H2         -1.1620    0.7860    0.8760 h1        1 2WD      0.048200
     22 H3          0.9550    1.3570   -0.6360 h1        1 2WD      0.065700
     23 H4          2.3570    1.8010    1.4430 h1        1 2WD      0.065200
     24 H5          0.5950    2.3060    1.6370 h1        1 2WD      0.065200
     25 H6         -0.0290   -1.0440    1.8780 ho        1 2WD      0.419000
     26 H7          0.8290   -1.3420   -1.4300 h2        1 2WD      0.089700
     27 H8          2.4930   -2.8330   -0.1010 hc        1 2WD      0.058200
     28 H9          3.8540   -1.8800   -0.8180 hc        1 2WD      0.058200
     29 H10         3.1950    0.1530   -1.9010 ho        1 2WD      0.411000
     30 H11         2.9860   -2.4650   -3.1420 hc        1 2WD      0.048700
     31 H12         1.7230   -3.5080   -2.3800 hc        1 2WD      0.048700
     32 H13         4.7850   -3.8340   -2.0340 hc        1 2WD      0.039200
     33 H14         3.5250   -4.8640   -1.2520 hc        1 2WD      0.039200
     34 H15         3.9310   -4.5140   -4.3050 hc        1 2WD      0.034367
     35 H16         2.6740   -5.5510   -3.5190 hc        1 2WD      0.034367
     36 H17         4.4300   -5.9450   -3.3120 hc        1 2WD      0.034367
     37 H18         2.8240   -0.5050    2.2030 h2        1 2WD      0.105700
     38 H19         2.3720   -1.1280    4.9840 hc        1 2WD      0.061200
     39 H20         0.6930   -0.9820    4.3160 hc        1 2WD      0.061200
     40 H21         2.6210    1.2540    4.4220 ho        1 2WD      0.411000
     41 H22         1.3330   -2.5860    2.4490 hc        1 2WD      0.048700
     42 H23         2.9690   -2.7650    3.1930 hc        1 2WD      0.048700
     43 H24         0.2740   -3.4180    4.5780 hc        1 2WD      0.041200
     44 H25         1.9070   -3.5870    5.3280 hc        1 2WD      0.041200
     45 H26         0.9370   -5.0340    2.7670 hc        1 2WD      0.040200
     46 H27         2.5710   -5.2040    3.5150 hc        1 2WD      0.040200
     47 H28         1.0690   -7.0760    4.1940 hc        1 2WD      0.033033
     48 H29         1.5130   -6.0670    5.6320 hc        1 2WD      0.033033
     49 H30        -0.1240   -5.8980    4.8800 hc        1 2WD      0.033033
@<TRIPOS>BOND
     1    1    2 1   
     2    1    4 1   
     3    1   20 1   
     4    1   21 1   
     5    2    3 1   
     6    2    6 1   
     7    2   22 1   
     8    3   13 1   
     9    3   23 1   
    10    3   24 1   
    11    4   25 1   
    12    5    6 1   
    13    5    7 1   
    14    5    8 1   
    15    5   26 1   
    16    7    9 1   
    17    7   27 1   
    18    7   28 1   
    19    8   29 1   
    20    9   10 1   
    21    9   30 1   
    22    9   31 1   
    23   10   11 1   
    24   10   32 1   
    25   10   33 1   
    26   11   34 1   
    27   11   35 1   
    28   11   36 1   
    29   12   13 1   
    30   12   14 1   
    31   12   15 1   
    32   12   37 1   
    33   14   16 1   
    34   14   38 1   
    35   14   39 1   
    36   15   40 1   
    37   16   17 1   
    38   16   41 1   
    39   16   42 1   
    40   17   18 1   
    41   17   43 1   
    42   17   44 1   
    43   18   19 1   
    44   18   45 1   
    45   18   46 1   
    46   19   47 1   
    47   19   48 1   
    48   19   49 1   
@<TRIPOS>SUBSTRUCTURE
     1 2WD         1 TEMP              0 ****  ****    0 ROOT
