@<TRIPOS>MOLECULE
2WD
   49    48     1     0     0
SMALL
bcc


@<TRIPOS>ATOM
      1 C1          0.0750    0.0450    0.0270 c3        1 2WD      0.117400
      2 C2          1.5950    0.2350    0.0520 c3        1 2WD      0.103100
      3 C3          2.1570    0.2110    1.4760 c3        1 2WD      0.136400
      4 O11        -0.2950   -1.3110   -0.0880 oh        1 2WD     -0.603800
      5 C21         2.0470   -0.8270   -2.0480 c3        1 2WD      0.326900
      6 O21         2.2610   -0.8210   -0.6420 os        1 2WD     -0.451600
      7 C22         2.5900   -2.1570   -2.5660 c3        1 2WD     -0.101400
      8 O22         2.7390    0.2990   -2.5290 oh        1 2WD     -0.625800
      9 C23         2.3570   -2.2760   -4.0560 c3        1 2WD     -0.080400
     10 C24         2.9690   -3.5470   -4.6050 c3        1 2WD     -0.078400
     11 C25         2.7280   -3.6780   -6.0870 c3        1 2WD     -0.093100
     12 C31         2.0050   -1.0340    3.5010 c3        1 2WD      0.331900
     13 O31         1.5150   -0.8520    2.1790 os        1 2WD     -0.467600
     14 C32         1.4770   -2.3820    3.9860 c3        1 2WD     -0.105400
     15 O32         1.5180    0.0670    4.2270 oh        1 2WD     -0.622800
     16 C33         2.0140   -2.6920    5.3660 c3        1 2WD     -0.080400
     17 C34         1.4290   -3.9800    5.9010 c3        1 2WD     -0.078400
     18 C35         1.9740   -4.3010    7.2770 c3        1 2WD     -0.080400
     19 C36         1.3910   -5.5800    7.8180 c3        1 2WD     -0.093100
     20 H1         -0.3690    0.4850    0.9600 h1        1 2WD      0.047200
     21 H2         -0.3750    0.5440   -0.8730 h1        1 2WD      0.047200
     22 H3          1.8660    1.2190   -0.4250 h1        1 2WD      0.065700
     23 H4          1.9320    1.1810    1.9920 h1        1 2WD      0.048700
     24 H5          3.2640    0.0350    1.4520 h1        1 2WD      0.048700
     25 H6          0.2550   -1.8100    0.5330 ho        1 2WD      0.424000
     26 H7          0.9660   -0.6670   -2.3150 h2        1 2WD      0.091700
     27 H8          3.6840   -2.2270   -2.3360 hc        1 2WD      0.059200
     28 H9          2.0740   -2.9880   -2.0190 hc        1 2WD      0.059200
     29 H10         3.6780    0.1740   -2.3450 ho        1 2WD      0.410000
     30 H11         2.8000   -1.3840   -4.5730 hc        1 2WD      0.048700
     31 H12         1.2550   -2.2680   -4.2660 hc        1 2WD      0.048700
     32 H13         4.0730   -3.5490   -4.4010 hc        1 2WD      0.038700
     33 H14         2.5340   -4.4330   -4.0720 hc        1 2WD      0.038700
     34 H15         3.1900   -4.6180   -6.4730 hc        1 2WD      0.034033
     35 H16         3.1730   -2.8140   -6.6370 hc        1 2WD      0.034033
     36 H17         1.6330   -3.7060   -6.3070 hc        1 2WD      0.034033
     37 H18         3.1270   -0.9630    3.5570 h2        1 2WD      0.078700
     38 H19         0.3570   -2.3580    4.0000 hc        1 2WD      0.060200
     39 H20         1.7900   -3.1720    3.2550 hc        1 2WD      0.060200
     40 H21         0.5530    0.0290    4.2170 ho        1 2WD      0.413000
     41 H22         1.7680   -1.8430    6.0580 hc        1 2WD      0.047700
     42 H23         3.1320   -2.7730    5.3260 hc        1 2WD      0.047700
     43 H24         0.3110   -3.8950    5.9520 hc        1 2WD      0.040700
     44 H25         1.6640   -4.8220    5.1980 hc        1 2WD      0.040700
     45 H26         1.7420   -3.4550    7.9770 hc        1 2WD      0.039700
     46 H27         3.0920   -4.3880    7.2240 hc        1 2WD      0.039700
     47 H28         1.8070   -5.7980    8.8310 hc        1 2WD      0.033367
     48 H29         1.6330   -6.4390    7.1460 hc        1 2WD      0.033367
     49 H30         0.2800   -5.5040    7.9010 hc        1 2WD      0.033367
@<TRIPOS>BOND
     1    1    2 1   
     2    1    4 1   
     3    1   20 1   
     4    1   21 1   
     5    2    3 1   
     6    2    6 1   
     7    2   22 1   
     8    3   13 1   
     9    3   23 1   
    10    3   24 1   
    11    4   25 1   
    12    5    6 1   
    13    5    7 1   
    14    5    8 1   
    15    5   26 1   
    16    7    9 1   
    17    7   27 1   
    18    7   28 1   
    19    8   29 1   
    20    9   10 1   
    21    9   30 1   
    22    9   31 1   
    23   10   11 1   
    24   10   32 1   
    25   10   33 1   
    26   11   34 1   
    27   11   35 1   
    28   11   36 1   
    29   12   13 1   
    30   12   14 1   
    31   12   15 1   
    32   12   37 1   
    33   14   16 1   
    34   14   38 1   
    35   14   39 1   
    36   15   40 1   
    37   16   17 1   
    38   16   41 1   
    39   16   42 1   
    40   17   18 1   
    41   17   43 1   
    42   17   44 1   
    43   18   19 1   
    44   18   45 1   
    45   18   46 1   
    46   19   47 1   
    47   19   48 1   
    48   19   49 1   
@<TRIPOS>SUBSTRUCTURE
     1 2WD         1 TEMP              0 ****  ****    0 ROOT
