@<TRIPOS>MOLECULE
2WE
   34    36     1     0     0
SMALL
bcc


@<TRIPOS>ATOM
      1 O2         -0.0680   -0.3040    0.2200 o         1 2WE     -0.401100
      2 C3          1.1430   -0.1710    0.1310 c         1 2WE      0.735700
      3 C4          2.1050    0.0750    1.2500 ce        1 2WE     -0.952400
      4 S5          3.6630    0.0980    0.7670 sx        1 2WE      0.139400
      5 C6          3.1080   -0.1530   -1.0540 ce        1 2WE      0.752200
      6 N7          1.8470   -0.2760   -1.1470 nf        1 2WE     -0.501100
      7 C8          4.1900   -0.1870   -2.0160 ca        1 2WE     -0.108900
      8 C9          5.5060   -0.3970   -1.5790 ca        1 2WE     -0.302300
      9 C10         6.5170   -0.4220   -2.5540 ca        1 2WE      0.462200
     10 N11         6.3140   -0.2520   -3.8660 nb        1 2WE     -0.637000
     11 C12         5.0290   -0.0310   -4.2980 ca        1 2WE      0.579200
     12 C13         3.9260   -0.0040   -3.3730 ca        1 2WE     -0.241300
     13 N14         4.7530    0.1500   -5.6510 n         1 2WE     -0.562400
     14 C15         5.6780    0.4920   -6.6640 c         1 2WE      0.705100
     15 O16         6.8060    0.9170   -6.3960 o         1 2WE     -0.518100
     16 C17         5.1700    0.3410   -8.0620 cx        1 2WE     -0.244700
     17 C18         5.2990    1.5280   -8.9900 cx        1 2WE     -0.092400
     18 C19         6.1930    0.3450   -9.1760 cx        1 2WE     -0.092400
     19 C20         1.4990    0.2430    2.5100 c         1 2WE      0.647300
     20 O21         0.3590    0.5140    2.8550 o         1 2WE     -0.424100
     21 N22         2.4150   -0.0030    3.7340 n4        1 2WE     -0.778400
     22 H1          5.7540   -0.5610   -0.5220 ha        1 2WE      0.131000
     23 H2          7.5740   -0.5980   -2.2690 h4        1 2WE      0.050100
     24 H3          2.8980    0.1580   -3.7290 ha        1 2WE      0.172000
     25 H4          3.7990    0.0350   -5.9180 hn        1 2WE      0.332500
     26 H5          4.2870   -0.3180   -8.1740 hc        1 2WE      0.096700
     27 H6          5.7330    2.4650   -8.5940 hc        1 2WE      0.091700
     28 H7          4.4830    1.7160   -9.7100 hc        1 2WE      0.091700
     29 H8          6.0320   -0.3350  -10.0320 hc        1 2WE      0.091700
     30 H9          7.2620    0.4360   -8.9030 hc        1 2WE      0.091700
     31 H10         1.8530    0.1030    4.5880 hn        1 2WE      0.453133
     32 H11         2.7880   -0.9520    3.6990 hn        1 2WE      0.453133
     33 H12         3.9140    1.3890    0.6850 hs        1 2WE      0.328000
     34 H223        3.1840    0.6630    3.7610 hn        1 2WE      0.453133
@<TRIPOS>BOND
     1    1    2 2   
     2    2    3 1   
     3    2    6 1   
     4    3    4 2   
     5    3   19 1   
     6    4    5 1   
     7    4   33 1   
     8    5    6 2   
     9    5    7 1   
    10    7    8 ar  
    11    7   12 ar  
    12    8    9 ar  
    13    8   22 1   
    14    9   10 ar  
    15    9   23 1   
    16   10   11 ar  
    17   11   12 ar  
    18   11   13 1   
    19   12   24 1   
    20   13   14 1   
    21   13   25 1   
    22   14   15 2   
    23   14   16 1   
    24   16   17 1   
    25   16   18 1   
    26   16   26 1   
    27   17   18 1   
    28   17   27 1   
    29   17   28 1   
    30   18   29 1   
    31   18   30 1   
    32   19   20 2   
    33   19   21 1   
    34   21   31 1   
    35   21   32 1   
    36   21   34 1   
@<TRIPOS>SUBSTRUCTURE
     1 2WE         1 TEMP              0 ****  ****    0 ROOT
