@<TRIPOS>MOLECULE
2WE
   34    36     1     0     0
SMALL
bcc


@<TRIPOS>ATOM
      1 O2         -0.0710   -0.3000    0.2150 o         1 2WE     -0.401100
      2 C3          1.1390   -0.1680    0.1280 c         1 2WE      0.735700
      3 C4          2.1010    0.0770    1.2480 ce        1 2WE     -0.952400
      4 S5          3.6590    0.0980    0.7660 sx        1 2WE      0.139400
      5 C6          3.1060   -0.1530   -1.0550 ce        1 2WE      0.752200
      6 N7          1.8450   -0.2740   -1.1500 nf        1 2WE     -0.501100
      7 C8          4.1890   -0.1880   -2.0170 ca        1 2WE     -0.108900
      8 C9          5.5050   -0.4000   -1.5770 ca        1 2WE     -0.302300
      9 C10         6.5160   -0.4270   -2.5520 ca        1 2WE      0.462200
     10 N11         6.3140   -0.2560   -3.8650 nb        1 2WE     -0.637000
     11 C12         5.0300   -0.0330   -4.2970 ca        1 2WE      0.579200
     12 C13         3.9270   -0.0050   -3.3730 ca        1 2WE     -0.241300
     13 N14         4.7550    0.1490   -5.6500 ns        1 2WE     -0.562400
     14 C15         5.6820    0.4890   -6.6620 c         1 2WE      0.705100
     15 O16         6.8110    0.9140   -6.3930 o         1 2WE     -0.518100
     16 C17         5.1760    0.3390   -8.0610 cx        1 2WE     -0.244700
     17 C18         5.3040    1.5280   -8.9880 cx        1 2WE     -0.092400
     18 C19         6.2000    0.3460   -9.1740 cx        1 2WE     -0.092400
     19 C20         1.4940    0.2470    2.5070 c         1 2WE      0.646300
     20 O21         0.3530    0.5180    2.8510 o         1 2WE     -0.424100
     21 N22         2.4090    0.0010    3.7320 nz        1 2WE     -0.778400
     22 H1          5.7510   -0.5650   -0.5210 ha        1 2WE      0.131000
     23 H2          7.5730   -0.6040   -2.2660 h4        1 2WE      0.050100
     24 H3          2.8990    0.1590   -3.7310 ha        1 2WE      0.172000
     25 H4          3.8030    0.0350   -5.9180 hn        1 2WE      0.332500
     26 H5          4.2940   -0.3210   -8.1740 hc        1 2WE      0.096700
     27 H6          5.7360    2.4650   -8.5900 hc        1 2WE      0.091700
     28 H7          4.4880    1.7150   -9.7090 hc        1 2WE      0.091700
     29 H8          7.2680    0.4380   -8.9010 hc        1 2WE      0.091700
     30 H9          6.0400   -0.3330  -10.0310 hc        1 2WE      0.091700
     31 H10         1.8460    0.1070    4.5850 hn        1 2WE      0.453133
     32 H11         2.7830   -0.9480    3.6990 hn        1 2WE      0.453133
     33 H12         3.9120    1.3890    0.6840 hs        1 2WE      0.328000
     34 H223        3.1780    0.6670    3.7600 hn        1 2WE      0.453133
@<TRIPOS>BOND
     1    1    2 2   
     2    2    3 1   
     3    2    6 1   
     4    3    4 2   
     5    3   19 1   
     6    4    5 1   
     7    4   33 1   
     8    5    6 2   
     9    5    7 1   
    10    7    8 ar  
    11    7   12 ar  
    12    8    9 ar  
    13    8   22 1   
    14    9   10 ar  
    15    9   23 1   
    16   10   11 ar  
    17   11   12 ar  
    18   11   13 1   
    19   12   24 1   
    20   13   14 1   
    21   13   25 1   
    22   14   15 2   
    23   14   16 1   
    24   16   17 1   
    25   16   18 1   
    26   16   26 1   
    27   17   18 1   
    28   17   27 1   
    29   17   28 1   
    30   18   29 1   
    31   18   30 1   
    32   19   20 2   
    33   19   21 1   
    34   21   31 1   
    35   21   32 1   
    36   21   34 1   
@<TRIPOS>SUBSTRUCTURE
     1 2WE         1 TEMP              0 ****  ****    0 ROOT
