@<TRIPOS>MOLECULE
2WF
   37    40     1     0     0
SMALL
bcc


@<TRIPOS>ATOM
      1 C1          0.0520   -0.7030    0.0830 ca        1 2WF     -0.125000
      2 C2          1.4220   -0.7750    0.1260 ca        1 2WF     -0.099000
      3 C3          2.1420   -0.3090    1.2610 cp        1 2WF     -0.051000
      4 C4          1.4540    0.2240    2.3350 ca        1 2WF     -0.079000
      5 C5          0.0420    0.3110    2.3080 ca        1 2WF     -0.164300
      6 C6         -0.6730   -0.1550    1.1740 ca        1 2WF     -0.008000
      7 C7         -2.0920   -0.0510    1.1880 ca        1 2WF     -0.230300
      8 C8         -2.7120    0.4970    2.2950 ca        1 2WF      0.387200
      9 N9         -2.0380    0.9540    3.3980 nb        1 2WF     -0.662000
     10 C10        -0.7180    0.8610    3.3950 ca        1 2WF      0.425200
     11 C11         3.6010   -0.4010    1.2780 cp        1 2WF      0.026000
     12 C12         4.2800   -0.7960    2.4390 ca        1 2WF     -0.271300
     13 C13         5.6810   -0.8710    2.3940 ca        1 2WF      0.427200
     14 N14         6.4280   -0.5880    1.3170 nb        1 2WF     -0.665000
     15 C15         5.7690   -0.1830    0.1860 ca        1 2WF      0.543200
     16 C16         4.3460   -0.0900    0.1370 ca        1 2WF     -0.287300
     17 N17         6.4890    0.1300   -0.9830 ns        1 2WF     -0.566400
     18 C18         7.8310    0.5110   -1.0660 c         1 2WF      0.699100
     19 O19         8.5260    0.7770   -0.0770 o         1 2WF     -0.537100
     20 C20         8.3620    0.6120   -2.4680 cx        1 2WF     -0.230700
     21 C21         9.8570    0.6170   -2.6580 cx        1 2WF     -0.106900
     22 C22         9.0600   -0.5840   -3.0650 cx        1 2WF     -0.106900
     23 H1         -0.5050   -1.0680   -0.7930 ha        1 2WF      0.140000
     24 H2          1.9850   -1.2040   -0.7180 ha        1 2WF      0.138000
     25 H3          1.9950    0.5930    3.2210 ha        1 2WF      0.143000
     26 H4         -2.6720   -0.4050    0.3250 ha        1 2WF      0.145000
     27 H5         -3.8100    0.5990    2.3520 h4        1 2WF      0.024100
     28 H6         -0.1890    1.2350    4.2910 h4        1 2WF      0.024100
     29 H7          3.7350   -1.0500    3.3570 ha        1 2WF      0.148000
     30 H8          6.2580   -1.1870    3.2840 h4        1 2WF      0.028100
     31 H9          3.8340    0.2360   -0.7790 ha        1 2WF      0.143000
     32 H10         5.9730    0.0570   -1.8290 hn        1 2WF      0.320500
     33 H11         7.7440    1.2540   -3.1250 hc        1 2WF      0.094700
     34 H12        10.4960    0.5590   -1.7560 hc        1 2WF      0.083200
     35 H13        10.2860    1.2740   -3.4340 hc        1 2WF      0.083200
     36 H14         9.1420   -1.5100   -2.4670 hc        1 2WF      0.083200
     37 H15         8.9090   -0.7970   -4.1390 hc        1 2WF      0.083200
@<TRIPOS>BOND
     1    1    2 ar  
     2    1    6 ar  
     3    1   23 1   
     4    2    3 ar  
     5    2   24 1   
     6    3    4 ar  
     7    3   11 1   
     8    4    5 ar  
     9    4   25 1   
    10    5    6 ar  
    11    5   10 ar  
    12    6    7 ar  
    13    7    8 ar  
    14    7   26 1   
    15    8    9 ar  
    16    8   27 1   
    17    9   10 ar  
    18   10   28 1   
    19   11   12 ar  
    20   11   16 ar  
    21   12   13 ar  
    22   12   29 1   
    23   13   14 ar  
    24   13   30 1   
    25   14   15 ar  
    26   15   16 ar  
    27   15   17 1   
    28   16   31 1   
    29   17   18 1   
    30   17   32 1   
    31   18   19 2   
    32   18   20 1   
    33   20   21 1   
    34   20   22 1   
    35   20   33 1   
    36   21   22 1   
    37   21   34 1   
    38   21   35 1   
    39   22   36 1   
    40   22   37 1   
@<TRIPOS>SUBSTRUCTURE
     1 2WF         1 TEMP              0 ****  ****    0 ROOT
