@<TRIPOS>MOLECULE
2WF
   37    40     1     0     0
SMALL
bcc


@<TRIPOS>ATOM
      1 C1          0.0530   -0.7080    0.0900 ca        1 2WF     -0.125000
      2 C2          1.4230   -0.7780    0.1330 ca        1 2WF     -0.099000
      3 C3          2.1430   -0.3020    1.2640 cp        1 2WF     -0.051000
      4 C4          1.4550    0.2390    2.3340 ca        1 2WF     -0.079000
      5 C5          0.0430    0.3250    2.3060 ca        1 2WF     -0.164300
      6 C6         -0.6720   -0.1520    1.1770 ca        1 2WF     -0.008000
      7 C7         -2.0910   -0.0490    1.1900 ca        1 2WF     -0.230300
      8 C8         -2.7110    0.5080    2.2930 ca        1 2WF      0.387200
      9 N9         -2.0370    0.9750    3.3920 nb        1 2WF     -0.662000
     10 C10        -0.7180    0.8830    3.3890 ca        1 2WF      0.425200
     11 C11         3.6030   -0.3930    1.2820 cp        1 2WF      0.026000
     12 C12         4.2820   -0.7770    2.4460 ca        1 2WF     -0.271300
     13 C13         5.6840   -0.8510    2.4010 ca        1 2WF      0.427200
     14 N14         6.4300   -0.5770    1.3210 nb        1 2WF     -0.665000
     15 C15         5.7700   -0.1820    0.1870 ca        1 2WF      0.543200
     16 C16         4.3460   -0.0900    0.1370 ca        1 2WF     -0.287300
     17 N17         6.4890    0.1220   -0.9840 n         1 2WF     -0.566400
     18 C18         7.8300    0.5030   -1.0720 c         1 2WF      0.699100
     19 O19         8.5260    0.7770   -0.0850 o         1 2WF     -0.537100
     20 C20         8.3610    0.5930   -2.4750 cx        1 2WF     -0.230700
     21 C21         9.8550    0.5920   -2.6660 cx        1 2WF     -0.106900
     22 C22         9.0540   -0.6090   -3.0660 cx        1 2WF     -0.106900
     23 H1         -0.5040   -1.0810   -0.7820 ha        1 2WF      0.140000
     24 H2          1.9860   -1.2140   -0.7070 ha        1 2WF      0.138000
     25 H3          1.9960    0.6160    3.2160 ha        1 2WF      0.143000
     26 H4         -2.6710   -0.4110    0.3300 ha        1 2WF      0.145000
     27 H5         -3.8100    0.6100    2.3500 h4        1 2WF      0.024100
     28 H6         -0.1890    1.2650    4.2820 h4        1 2WF      0.024100
     29 H7          3.7380   -1.0240    3.3660 ha        1 2WF      0.148000
     30 H8          6.2600   -1.1590    3.2940 h4        1 2WF      0.028100
     31 H9          3.8340    0.2280   -0.7810 ha        1 2WF      0.143000
     32 H10         5.9720    0.0420   -1.8300 hn        1 2WF      0.320500
     33 H11         7.7440    1.2340   -3.1350 hc        1 2WF      0.094700
     34 H12        10.2860    1.2430   -3.4470 hc        1 2WF      0.083200
     35 H13        10.4950    0.5370   -1.7650 hc        1 2WF      0.083200
     36 H14         9.1330   -1.5310   -2.4620 hc        1 2WF      0.083200
     37 H15         8.9010   -0.8280   -4.1370 hc        1 2WF      0.083200
@<TRIPOS>BOND
     1    1    2 ar  
     2    1    6 ar  
     3    1   23 1   
     4    2    3 ar  
     5    2   24 1   
     6    3    4 ar  
     7    3   11 1   
     8    4    5 ar  
     9    4   25 1   
    10    5    6 ar  
    11    5   10 ar  
    12    6    7 ar  
    13    7    8 ar  
    14    7   26 1   
    15    8    9 ar  
    16    8   27 1   
    17    9   10 ar  
    18   10   28 1   
    19   11   12 ar  
    20   11   16 ar  
    21   12   13 ar  
    22   12   29 1   
    23   13   14 ar  
    24   13   30 1   
    25   14   15 ar  
    26   15   16 ar  
    27   15   17 1   
    28   16   31 1   
    29   17   18 1   
    30   17   32 1   
    31   18   19 2   
    32   18   20 1   
    33   20   21 1   
    34   20   22 1   
    35   20   33 1   
    36   21   22 1   
    37   21   34 1   
    38   21   35 1   
    39   22   36 1   
    40   22   37 1   
@<TRIPOS>SUBSTRUCTURE
     1 2WF         1 TEMP              0 ****  ****    0 ROOT
