@<TRIPOS>MOLECULE
2WG
   39    41     1     0     0
SMALL
bcc


@<TRIPOS>ATOM
      1 C1          0.0770    0.7170   -0.0810 c3        1 2WG      0.119700
      2 O2          1.4960    0.4840    0.0280 os        1 2WG     -0.410100
      3 C3          2.0160    0.1710    1.2370 ca        1 2WG      0.773600
      4 C4          3.4410   -0.0360    1.2740 ca        1 2WG     -0.514200
      5 C5          3.9680   -0.3520    2.5600 ca        1 2WG      0.512200
      6 N6          3.2270   -0.4600    3.6530 nb        1 2WG     -0.700000
      7 C7          1.8530   -0.2540    3.5210 cp        1 2WG      0.840500
      8 N8          1.2340    0.0590    2.3490 nb        1 2WG     -0.755000
      9 C9          1.0170   -0.3860    4.7370 cp        1 2WG     -0.126500
     10 C10        -0.3090   -0.8240    4.6370 ca        1 2WG     -0.227300
     11 C11        -1.0510   -0.9320    5.8290 ca        1 2WG      0.429200
     12 N12        -0.5840   -0.6390    7.0470 nb        1 2WG     -0.630000
     13 C13         0.7100   -0.1900    7.1440 ca        1 2WG      0.553200
     14 C14         1.5470   -0.0650    5.9910 ca        1 2WG     -0.247300
     15 N15         1.2510    0.1370    8.3950 n         1 2WG     -0.571400
     16 C16         0.5250    0.5390    9.5300 c         1 2WG      0.705100
     17 O17        -0.6580    0.8920    9.4560 o         1 2WG     -0.532100
     18 C18         1.2960    0.5560   10.8130 cx        1 2WG     -0.241700
     19 C19         0.5000    0.5350   12.0990 cx        1 2WG     -0.095400
     20 C20         1.1920    1.7920   11.6790 cx        1 2WG     -0.095400
     21 C21         4.1990    0.0950    0.0630 c         1 2WG      0.601700
     22 O22         3.8640    0.4160   -1.0670 o         1 2WG     -0.408100
     23 N23         5.6960   -0.2210    0.1630 n4        1 2WG     -0.768400
     24 H1         -0.0340    0.9560   -1.1710 h1        1 2WG      0.079700
     25 H2         -0.2210    1.5800    0.5590 h1        1 2WG      0.079700
     26 H3         -0.4850   -0.2070    0.1940 h1        1 2WG      0.079700
     27 H4          5.0490   -0.5280    2.7200 h4        1 2WG      0.019100
     28 H5         -0.7720   -1.0830    3.6760 ha        1 2WG      0.162000
     29 H6         -2.1020   -1.2840    5.8050 h4        1 2WG      0.046100
     30 H7          2.5830    0.2870    6.0970 ha        1 2WG      0.158000
     31 H8          2.2390    0.0560    8.4720 hn        1 2WG      0.325500
     32 H9          2.2590    0.0110   10.7940 hc        1 2WG      0.090700
     33 H10        -0.6030    0.4860   12.0290 hc        1 2WG      0.089450
     34 H11         0.8970   -0.0510   12.9470 hc        1 2WG      0.089450
     35 H12         2.0950    2.1260   12.2190 hc        1 2WG      0.089450
     36 H13         0.5800    2.6390   11.3160 hc        1 2WG      0.089450
     37 H14         5.8310   -1.1770    0.4950 hn        1 2WG      0.463467
     38 H15         6.1490    0.4280    0.8100 hn        1 2WG      0.463467
     39 H233        6.1240   -0.1220   -0.7670 hn        1 2WG      0.463467
@<TRIPOS>BOND
     1    1    2 1   
     2    1   24 1   
     3    1   25 1   
     4    1   26 1   
     5    2    3 1   
     6    3    4 ar  
     7    3    8 ar  
     8    4    5 ar  
     9    4   21 1   
    10    5    6 ar  
    11    5   27 1   
    12    6    7 ar  
    13    7    8 ar  
    14    7    9 1   
    15    9   10 ar  
    16    9   14 ar  
    17   10   11 ar  
    18   10   28 1   
    19   11   12 ar  
    20   11   29 1   
    21   12   13 ar  
    22   13   14 ar  
    23   13   15 1   
    24   14   30 1   
    25   15   16 1   
    26   15   31 1   
    27   16   17 2   
    28   16   18 1   
    29   18   19 1   
    30   18   20 1   
    31   18   32 1   
    32   19   20 1   
    33   19   33 1   
    34   19   34 1   
    35   20   35 1   
    36   20   36 1   
    37   21   22 2   
    38   21   23 1   
    39   23   37 1   
    40   23   38 1   
    41   23   39 1   
@<TRIPOS>SUBSTRUCTURE
     1 2WG         1 TEMP              0 ****  ****    0 ROOT
