@<TRIPOS>MOLECULE
2WG
   39    41     1     0     0
SMALL
bcc


@<TRIPOS>ATOM
      1 C1          0.0710    0.6900   -0.0820 c3        1 2WG      0.119700
      2 O2          1.4910    0.4650    0.0260 os        1 2WG     -0.410100
      3 C3          2.0150    0.1600    1.2360 ca        1 2WG      0.773600
      4 C4          3.4410   -0.0380    1.2720 ca        1 2WG     -0.514200
      5 C5          3.9710   -0.3460    2.5590 ca        1 2WG      0.512200
      6 N6          3.2310   -0.4540    3.6530 nb        1 2WG     -0.700000
      7 C7          1.8560   -0.2560    3.5220 cp        1 2WG      0.840500
      8 N8          1.2350    0.0490    2.3490 nb        1 2WG     -0.755000
      9 C9          1.0220   -0.3890    4.7400 cp        1 2WG     -0.126500
     10 C10        -0.3010   -0.8360    4.6420 ca        1 2WG     -0.227300
     11 C11        -1.0410   -0.9440    5.8350 ca        1 2WG      0.429200
     12 N12        -0.5750   -0.6430    7.0520 nb        1 2WG     -0.630000
     13 C13         0.7160   -0.1840    7.1460 ca        1 2WG      0.553200
     14 C14         1.5520   -0.0590    5.9910 ca        1 2WG     -0.247300
     15 N15         1.2560    0.1510    8.3950 ns        1 2WG     -0.571400
     16 C16         0.5280    0.5540    9.5290 c         1 2WG      0.705100
     17 O17        -0.6580    0.9000    9.4540 o         1 2WG     -0.532100
     18 C18         1.2990    0.5810   10.8120 cx        1 2WG     -0.241700
     19 C19         0.5040    0.5370   12.0970 cx        1 2WG     -0.095400
     20 C20         1.1690    1.8100   11.6820 cx        1 2WG     -0.095400
     21 C21         4.1970    0.0930    0.0600 c         1 2WG      0.601700
     22 O22         3.8590    0.4120   -1.0700 o         1 2WG     -0.408100
     23 N23         5.6940   -0.2200    0.1580 nz        1 2WG     -0.768400
     24 H1         -0.2310    1.5540    0.5550 h1        1 2WG      0.079700
     25 H2         -0.0430    0.9240   -1.1730 h1        1 2WG      0.079700
     26 H3         -0.4850   -0.2360    0.1980 h1        1 2WG      0.079700
     27 H4          5.0530   -0.5150    2.7190 h4        1 2WG      0.019100
     28 H5         -0.7630   -1.1030    3.6830 ha        1 2WG      0.162000
     29 H6         -2.0900   -1.3030    5.8140 h4        1 2WG      0.046100
     30 H7          2.5850    0.3000    6.0950 ha        1 2WG      0.158000
     31 H8          2.2440    0.0760    8.4720 hn        1 2WG      0.325500
     32 H9          2.2740    0.0560   10.7890 hc        1 2WG      0.090700
     33 H10         0.9130   -0.0440   12.9430 hc        1 2WG      0.089450
     34 H11        -0.5980    0.4650   12.0270 hc        1 2WG      0.089450
     35 H12         2.0650    2.1620   12.2250 hc        1 2WG      0.089450
     36 H13         0.5390    2.6450   11.3240 hc        1 2WG      0.089450
     37 H14         6.1470    0.4320    0.8030 hn        1 2WG      0.463467
     38 H15         6.1200   -0.1230   -0.7720 hn        1 2WG      0.463467
     39 H233        5.8320   -1.1750    0.4940 hn        1 2WG      0.463467
@<TRIPOS>BOND
     1    1    2 1   
     2    1   24 1   
     3    1   25 1   
     4    1   26 1   
     5    2    3 1   
     6    3    4 ar  
     7    3    8 ar  
     8    4    5 ar  
     9    4   21 1   
    10    5    6 ar  
    11    5   27 1   
    12    6    7 ar  
    13    7    8 ar  
    14    7    9 1   
    15    9   10 ar  
    16    9   14 ar  
    17   10   11 ar  
    18   10   28 1   
    19   11   12 ar  
    20   11   29 1   
    21   12   13 ar  
    22   13   14 ar  
    23   13   15 1   
    24   14   30 1   
    25   15   16 1   
    26   15   31 1   
    27   16   17 2   
    28   16   18 1   
    29   18   19 1   
    30   18   20 1   
    31   18   32 1   
    32   19   20 1   
    33   19   33 1   
    34   19   34 1   
    35   20   35 1   
    36   20   36 1   
    37   21   22 2   
    38   21   23 1   
    39   23   37 1   
    40   23   38 1   
    41   23   39 1   
@<TRIPOS>SUBSTRUCTURE
     1 2WG         1 TEMP              0 ****  ****    0 ROOT
