@<TRIPOS>MOLECULE
2WH
   57    60     1     0     0
SMALL
bcc


@<TRIPOS>ATOM
      1 C1          1.1130   -0.9120    0.2620 c3        1 2WH     -0.102100
      2 C2          2.4500   -0.2580    0.5030 c3        1 2WH     -0.096400
      3 C3          3.2020   -1.0160    1.5970 c3        1 2WH      0.018300
      4 N4          4.4990   -0.4760    1.9210 na        1 2WH     -0.173900
      5 C5          4.7620    0.5870    2.7740 cc        1 2WH     -0.172600
      6 C6          6.1650    0.7580    2.7690 cd        1 2WH      0.197600
      7 N7          6.7560   -0.1830    1.9090 nd        1 2WH     -0.712000
      8 C8          5.7350   -0.9060    1.4080 cc        1 2WH      0.434400
      9 C9          6.9350    1.7170    3.5840 c3        1 2WH     -0.085700
     10 C10         8.1080    2.2190    2.7360 c3        1 2WH      0.109800
     11 N11         8.9970    3.1630    3.5130 n4        1 2WH     -0.646800
     12 C12        10.1120    3.6710    2.6760 c         1 2WH      0.506100
     13 O13        10.1140    4.8020    2.2200 o         1 2WH     -0.307100
     14 N14        11.2680    2.7500    2.3900 n4        1 2WH     -0.519800
     15 C15        12.0320    2.4490    3.5890 cc        1 2WH      0.152100
     16 N16        11.4010    2.1960    4.7690 nd        1 2WH     -0.554100
     17 C17        12.3370    1.9080    5.7210 ca        1 2WH      0.089400
     18 C18        12.0910    1.5800    7.0870 ca        1 2WH     -0.052000
     19 C19        13.1550    1.3150    7.9120 ca        1 2WH     -0.099000
     20 C20        14.5040    1.3540    7.4470 cp        1 2WH      0.116000
     21 C21        14.7660    1.6750    6.1120 ca        1 2WH     -0.123000
     22 C22        13.7110    1.9500    5.2450 ca        1 2WH     -0.069100
     23 S23        13.7420    2.3570    3.6270 ss        1 2WH      0.288900
     24 C24        15.5910    1.0570    8.3600 cp        1 2WH     -0.201300
     25 C25        15.5100    1.3890    9.7210 ca        1 2WH     -0.096000
     26 C26        16.5990    1.0780   10.5530 ca        1 2WH      0.026800
     27 C27        17.7340    0.4390    9.9920 ca        1 2WH      0.378200
     28 N28        17.8080    0.1140    8.6900 nb        1 2WH     -0.615000
     29 C29        16.7680    0.4160    7.8970 ca        1 2WH      0.399200
     30 O30        16.4630    1.4310   11.8700 os        1 2WH     -0.309900
     31 C31        17.5660    1.1230   12.7270 c3        1 2WH      0.104700
     32 H1          1.2410   -1.9710   -0.0670 hc        1 2WH      0.052700
     33 H2          0.4910   -0.9020    1.1890 hc        1 2WH      0.052700
     34 H3          0.5610   -0.3600   -0.5380 hc        1 2WH      0.052700
     35 H4          2.3010    0.8110    0.8090 hc        1 2WH      0.054200
     36 H5          3.0480   -0.2560   -0.4460 hc        1 2WH      0.054200
     37 H6          3.3480   -2.0870    1.2720 h1        1 2WH      0.081700
     38 H7          2.5810   -1.0160    2.5400 h1        1 2WH      0.081700
     39 H8          3.9770    1.1170    3.3150 h4        1 2WH      0.198000
     40 H9          5.8260   -1.7410    0.7000 h5        1 2WH      0.087100
     41 H10         7.3150    1.2070    4.5120 hc        1 2WH      0.076200
     42 H11         6.2700    2.5680    3.8920 hc        1 2WH      0.076200
     43 H12         7.7180    2.7670    1.8300 hx        1 2WH      0.123700
     44 H13         8.7420    1.3430    2.4160 hx        1 2WH      0.123700
     45 H14         9.3600    2.6790    4.3640 hn        1 2WH      0.510800
     46 H15        11.8880    3.2320    1.7100 hn        1 2WH      0.504300
     47 H16        11.0560    1.5340    7.4610 ha        1 2WH      0.170000
     48 H17        12.9720    1.0460    8.9690 ha        1 2WH      0.185000
     49 H18        15.8080    1.7210    5.7510 ha        1 2WH      0.181000
     50 H19        14.6340    1.9010   10.1460 ha        1 2WH      0.161000
     51 H20        18.6160    0.1770   10.6070 h4        1 2WH      0.055100
     52 H21        16.8740    0.1070    6.8410 h4        1 2WH      0.027100
     53 H22        18.4830    1.6660   12.3930 h1        1 2WH      0.063700
     54 H23        17.7400    0.0210   12.7580 h1        1 2WH      0.063700
     55 H24        17.2200    1.5000   13.7240 h1        1 2WH      0.063700
     56 H112        8.4390    3.9820    3.8180 hn        1 2WH      0.510800
     57 H142       10.9220    1.8660    1.9710 hn        1 2WH      0.504300
@<TRIPOS>BOND
     1    1    2 1   
     2    1   32 1   
     3    1   33 1   
     4    1   34 1   
     5    2    3 1   
     6    2   35 1   
     7    2   36 1   
     8    3    4 1   
     9    3   37 1   
    10    3   38 1   
    11    4    5 1   
    12    4    8 1   
    13    5    6 2   
    14    5   39 1   
    15    6    7 1   
    16    6    9 1   
    17    7    8 2   
    18    8   40 1   
    19    9   10 1   
    20    9   41 1   
    21    9   42 1   
    22   10   11 1   
    23   10   43 1   
    24   10   44 1   
    25   11   12 1   
    26   11   45 1   
    27   11   56 1   
    28   12   13 2   
    29   12   14 1   
    30   14   15 1   
    31   14   46 1   
    32   14   57 1   
    33   15   16 2   
    34   15   23 1   
    35   16   17 1   
    36   17   18 ar  
    37   17   22 ar  
    38   18   19 ar  
    39   18   47 1   
    40   19   20 ar  
    41   19   48 1   
    42   20   21 ar  
    43   20   24 1   
    44   21   22 ar  
    45   21   49 1   
    46   22   23 1   
    47   24   25 ar  
    48   24   29 ar  
    49   25   26 ar  
    50   25   50 1   
    51   26   27 ar  
    52   26   30 1   
    53   27   28 ar  
    54   27   51 1   
    55   28   29 ar  
    56   29   52 1   
    57   30   31 1   
    58   31   53 1   
    59   31   54 1   
    60   31   55 1   
@<TRIPOS>SUBSTRUCTURE
     1 2WH         1 TEMP              0 ****  ****    0 ROOT
