@<TRIPOS>MOLECULE
2WH
   56    59     1     0     0
SMALL
bcc


@<TRIPOS>ATOM
      1 C1          0.7950   -1.4480    0.8940 c3        1 2WH     -0.099100
      2 C2          2.1580   -0.8580    0.6370 c3        1 2WH     -0.099400
      3 C3          2.9170   -0.7160    1.9590 c3        1 2WH      0.026300
      4 N4          4.2360   -0.1570    1.8370 na        1 2WH     -0.186900
      5 C5          4.5590    1.1950    1.7620 cc        1 2WH     -0.199600
      6 C6          5.9600    1.2570    1.5970 cd        1 2WH      0.231600
      7 N7          6.4920   -0.0410    1.5660 nd        1 2WH     -0.686000
      8 C8          5.4390   -0.8700    1.7060 cc        1 2WH      0.419400
      9 C9          6.7670    2.4790    1.4280 c3        1 2WH     -0.096700
     10 C10         8.0210    2.3850    2.3000 c3        1 2WH      0.102800
     11 N11         8.9370    3.5460    2.1020 ny        1 2WH     -0.676800
     12 C12        10.0770    3.5670    3.1330 c         1 2WH      0.634100
     13 O13        10.0820    4.5810    3.8280 o         1 2WH     -0.440100
     14 N14        11.0190    2.5460    3.0670 ns        1 2WH     -0.368400
     15 C15        11.8090    2.3330    4.2290 cc        1 2WH      0.269800
     16 N16        11.3060    2.0780    5.4460 nd        1 2WH     -0.507100
     17 C17        12.3600    1.9130    6.3400 ca        1 2WH      0.077400
     18 C18        12.2390    1.6280    7.7200 ca        1 2WH     -0.058000
     19 C19        13.3840    1.4840    8.4760 ca        1 2WH     -0.112000
     20 C20        14.6740    1.6180    7.9040 cp        1 2WH      0.022000
     21 C21        14.8090    1.9000    6.5460 ca        1 2WH     -0.090000
     22 C22        13.6670    2.0520    5.7570 ca        1 2WH     -0.093100
     23 S23        13.5380    2.3970    4.1150 ss        1 2WH      0.122900
     24 C24        15.8560    1.4620    8.7420 cp        1 2WH     -0.151300
     25 C25        15.9080    0.4890    9.7460 ca        1 2WH     -0.107000
     26 C26        17.0800    0.3890   10.5180 ca        1 2WH      0.016800
     27 C27        18.1560    1.2680   10.2570 ca        1 2WH      0.342200
     28 N28        18.1040    2.2050    9.2940 nb        1 2WH     -0.625000
     29 C29        16.9850    2.2980    8.5590 ca        1 2WH      0.376200
     30 O30        17.0740   -0.5870   11.4880 os        1 2WH     -0.315900
     31 C31        18.2590   -0.6940   12.2740 c3        1 2WH      0.108700
     32 H1          0.8800   -2.4580    1.3620 hc        1 2WH      0.046700
     33 H2          0.2400   -1.5530   -0.0700 hc        1 2WH      0.046700
     34 H3          0.1990   -0.7930    1.5740 hc        1 2WH      0.046700
     35 H4          2.0530    0.1440    0.1460 hc        1 2WH      0.055700
     36 H5          2.7320   -1.5180   -0.0660 hc        1 2WH      0.055700
     37 H6          2.3210   -0.0560    2.6540 h1        1 2WH      0.072200
     38 H7          3.0160   -1.7330    2.4370 h1        1 2WH      0.072200
     39 H8          3.8100    1.9830    1.8290 h4        1 2WH      0.189000
     40 H9          5.4850   -1.9660    1.7280 h5        1 2WH      0.078100
     41 H10         7.0540    2.5880    0.3450 hc        1 2WH      0.067200
     42 H11         6.1540    3.3740    1.7180 hc        1 2WH      0.067200
     43 H12         8.5890    1.4440    2.0480 hx        1 2WH      0.119200
     44 H13         7.7270    2.3540    3.3890 hx        1 2WH      0.119200
     45 H14         9.3180    3.5310    1.1510 hn        1 2WH      0.462300
     46 H15        10.7560    1.6940    2.6020 hn        1 2WH      0.338500
     47 H16        11.2410    1.5260    8.1740 ha        1 2WH      0.163000
     48 H17        13.3030    1.2690    9.5540 ha        1 2WH      0.159000
     49 H18        15.8100    1.9980    6.0970 ha        1 2WH      0.158000
     50 H19        15.0680   -0.1960    9.9340 ha        1 2WH      0.159000
     51 H20        19.0950    1.2250   10.8370 h4        1 2WH      0.037100
     52 H21        16.9810    3.0890    7.7880 h4        1 2WH      0.026100
     53 H22        18.0230   -1.5340   12.9770 h1        1 2WH      0.054033
     54 H23        18.4450    0.2530   12.8360 h1        1 2WH      0.054033
     55 H24        19.1350   -0.9510   11.6310 h1        1 2WH      0.054033
     56 H112        8.4130    4.4250    2.2240 hn        1 2WH      0.462300
@<TRIPOS>BOND
     1    1    2 1   
     2    1   32 1   
     3    1   33 1   
     4    1   34 1   
     5    2    3 1   
     6    2   35 1   
     7    2   36 1   
     8    3    4 1   
     9    3   37 1   
    10    3   38 1   
    11    4    5 1   
    12    4    8 1   
    13    5    6 2   
    14    5   39 1   
    15    6    7 1   
    16    6    9 1   
    17    7    8 2   
    18    8   40 1   
    19    9   10 1   
    20    9   41 1   
    21    9   42 1   
    22   10   11 1   
    23   10   43 1   
    24   10   44 1   
    25   11   12 1   
    26   11   45 1   
    27   11   56 1   
    28   12   13 2   
    29   12   14 1   
    30   14   15 1   
    31   14   46 1   
    32   15   16 2   
    33   15   23 1   
    34   16   17 1   
    35   17   18 ar  
    36   17   22 ar  
    37   18   19 ar  
    38   18   47 1   
    39   19   20 ar  
    40   19   48 1   
    41   20   21 ar  
    42   20   24 1   
    43   21   22 ar  
    44   21   49 1   
    45   22   23 1   
    46   24   25 ar  
    47   24   29 ar  
    48   25   26 ar  
    49   25   50 1   
    50   26   27 ar  
    51   26   30 1   
    52   27   28 ar  
    53   27   51 1   
    54   28   29 ar  
    55   29   52 1   
    56   30   31 1   
    57   31   53 1   
    58   31   54 1   
    59   31   55 1   
@<TRIPOS>SUBSTRUCTURE
     1 2WH         1 TEMP              0 ****  ****    0 ROOT
