@<TRIPOS>MOLECULE
2WH
   56    59     1     0     0
SMALL
bcc


@<TRIPOS>ATOM
      1 C1          0.9140   -1.5060    0.4910 c3        1 2WH     -0.099100
      2 C2          2.2150   -0.7580    0.3500 c3        1 2WH     -0.099400
      3 C3          3.0020   -0.8390    1.6600 c3        1 2WH      0.026300
      4 N4          4.2670   -0.1540    1.6440 na        1 2WH     -0.186900
      5 C5          4.4750    1.2040    1.8650 cc        1 2WH     -0.199600
      6 C6          5.8590    1.4230    1.6970 cd        1 2WH      0.231600
      7 N7          6.4950    0.2150    1.3700 nd        1 2WH     -0.686000
      8 C8          5.5190   -0.7130    1.3390 cc        1 2WH      0.419400
      9 C9          6.5590    2.7180    1.7900 c3        1 2WH     -0.096700
     10 C10         7.8460    2.5440    2.5990 c3        1 2WH      0.102800
     11 N11         8.6580    3.7950    2.6480 n4        1 2WH     -0.676800
     12 C12         9.8280    3.6870    3.6390 c         1 2WH      0.634100
     13 O13         9.7770    4.5210    4.5410 o         1 2WH     -0.440100
     14 N14        10.8460    2.7900    3.3310 n         1 2WH     -0.368400
     15 C15        11.6910    2.3950    4.4040 cc        1 2WH      0.269800
     16 N16        11.2530    1.8430    5.5450 nd        1 2WH     -0.507100
     17 C17        12.3480    1.5740    6.3610 ca        1 2WH      0.077400
     18 C18        12.2980    0.9900    7.6480 ca        1 2WH     -0.058000
     19 C19        13.4770    0.7800    8.3330 ca        1 2WH     -0.112000
     20 C20        14.7320    1.1330    7.7770 cp        1 2WH      0.022000
     21 C21        14.7970    1.7120    6.5120 ca        1 2WH     -0.090000
     22 C22        13.6200    1.9400    5.7970 ca        1 2WH     -0.093100
     23 S23        13.4050    2.6220    4.2740 ss        1 2WH      0.122900
     24 C24        15.9530    0.8880    8.5360 cp        1 2WH     -0.151300
     25 C25        16.0000    1.0940    9.9180 ca        1 2WH     -0.107000
     26 C26        17.2100    0.8410   10.5900 ca        1 2WH      0.016800
     27 C27        18.3280    0.3910    9.8520 ca        1 2WH      0.342200
     28 N28        18.2820    0.1900    8.5220 nb        1 2WH     -0.626000
     29 C29        17.1260    0.4330    7.8850 ca        1 2WH      0.376200
     30 O30        17.1970    1.0610   11.9470 os        1 2WH     -0.315900
     31 C31        18.4220    0.8130   12.6340 c3        1 2WH      0.108700
     32 H1          1.0970   -2.5820    0.7260 hc        1 2WH      0.046700
     33 H2          0.2890   -1.0680    1.3060 hc        1 2WH      0.046700
     34 H3          0.3380   -1.4480   -0.4650 hc        1 2WH      0.046700
     35 H4          2.8170   -1.1970   -0.4880 hc        1 2WH      0.055700
     36 H5          2.0120    0.3140    0.0910 hc        1 2WH      0.055700
     37 H6          2.3770   -0.4000    2.4900 h1        1 2WH      0.072200
     38 H7          3.2000   -1.9230    1.9030 h1        1 2WH      0.072200
     39 H8          3.6670    1.8900    2.1180 h4        1 2WH      0.189000
     40 H9          5.6540   -1.7790    1.1170 h5        1 2WH      0.078100
     41 H10         5.8850    3.4700    2.2820 hc        1 2WH      0.067200
     42 H11         6.7980    3.0870    0.7540 hc        1 2WH      0.067200
     43 H12         8.4790    1.7330    2.1350 hx        1 2WH      0.119200
     44 H13         7.5940    2.2490    3.6590 hx        1 2WH      0.119200
     45 H14         8.0690    4.5770    2.9710 hn        1 2WH      0.462300
     46 H15        10.6360    2.0420    2.6930 hn        1 2WH      0.338500
     47 H16        11.3280    0.7090    8.0860 ha        1 2WH      0.163000
     48 H17        13.4520    0.3190    9.3340 ha        1 2WH      0.159000
     49 H18        15.7700    1.9970    6.0810 ha        1 2WH      0.158000
     50 H19        15.1260    1.4540   10.4810 ha        1 2WH      0.159000
     51 H20        19.2980    0.1810   10.3360 h4        1 2WH      0.037100
     52 H21        17.1300    0.2440    6.7960 h4        1 2WH      0.026100
     53 H22        19.2290    1.4840   12.2520 h1        1 2WH      0.054033
     54 H23        18.7180   -0.2590   12.5340 h1        1 2WH      0.054033
     55 H24        18.1720    1.0580   13.6980 h1        1 2WH      0.054033
     56 H112        9.0040    4.0220    1.7110 hn        1 2WH      0.462300
@<TRIPOS>BOND
     1    1    2 1   
     2    1   32 1   
     3    1   33 1   
     4    1   34 1   
     5    2    3 1   
     6    2   35 1   
     7    2   36 1   
     8    3    4 1   
     9    3   37 1   
    10    3   38 1   
    11    4    5 1   
    12    4    8 1   
    13    5    6 2   
    14    5   39 1   
    15    6    7 1   
    16    6    9 1   
    17    7    8 2   
    18    8   40 1   
    19    9   10 1   
    20    9   41 1   
    21    9   42 1   
    22   10   11 1   
    23   10   43 1   
    24   10   44 1   
    25   11   12 1   
    26   11   45 1   
    27   11   56 1   
    28   12   13 2   
    29   12   14 1   
    30   14   15 1   
    31   14   46 1   
    32   15   16 2   
    33   15   23 1   
    34   16   17 1   
    35   17   18 ar  
    36   17   22 ar  
    37   18   19 ar  
    38   18   47 1   
    39   19   20 ar  
    40   19   48 1   
    41   20   21 ar  
    42   20   24 1   
    43   21   22 ar  
    44   21   49 1   
    45   22   23 1   
    46   24   25 ar  
    47   24   29 ar  
    48   25   26 ar  
    49   25   50 1   
    50   26   27 ar  
    51   26   30 1   
    52   27   28 ar  
    53   27   51 1   
    54   28   29 ar  
    55   29   52 1   
    56   30   31 1   
    57   31   53 1   
    58   31   54 1   
    59   31   55 1   
@<TRIPOS>SUBSTRUCTURE
     1 2WH         1 TEMP              0 ****  ****    0 ROOT
