@<TRIPOS>MOLECULE
2WJ
   30    32     1     0     0
SMALL
bcc


@<TRIPOS>ATOM
      1 C1         -0.0980   -0.1580   -0.2710 c3        1 2WJ     -0.179100
      2 C2          1.3670   -0.3170    0.0610 c         1 2WJ      0.667100
      3 O3          1.7550   -0.6520    1.1870 o         1 2WJ     -0.532100
      4 N4          2.2540   -0.1020   -1.0040 n         1 2WJ     -0.484400
      5 C5          3.6360   -0.0100   -0.8880 cc        1 2WJ      0.456800
      6 N6          4.3300    0.3860    0.1780 nd        1 2WJ     -0.531100
      7 C7          5.7010    0.3140   -0.1020 ca        1 2WJ      0.107400
      8 C8          6.7340    0.6450    0.7970 ca        1 2WJ     -0.077000
      9 C9          8.0490    0.5460    0.3790 ca        1 2WJ     -0.117000
     10 C10         8.3790    0.1260   -0.9280 cp        1 2WJ     -0.031000
     11 C11         7.3650   -0.2060   -1.8280 ca        1 2WJ     -0.076000
     12 C12         6.0350   -0.1210   -1.4270 ca        1 2WJ     -0.083100
     13 S13         4.6260   -0.4720   -2.2930 ss        1 2WJ     -0.095100
     14 C14         9.7760    0.0370   -1.3320 cp        1 2WJ     -0.152300
     15 C15        10.7640   -0.4440   -0.4590 ca        1 2WJ     -0.083000
     16 C16        12.0850   -0.5110   -0.8980 ca        1 2WJ     -0.245300
     17 C17        12.3830   -0.0900   -2.2070 ca        1 2WJ      0.395200
     18 N18        11.4530    0.3780   -3.0630 nb        1 2WJ     -0.663000
     19 C19        10.1830    0.4370   -2.6270 ca        1 2WJ      0.404200
     20 H1         -0.3140    0.8900   -0.5920 hc        1 2WJ      0.071033
     21 H2         -0.6950   -0.3880    0.6450 hc        1 2WJ      0.071033
     22 H3         -0.3980   -0.8610   -1.0850 hc        1 2WJ      0.071033
     23 H4          1.8780    0.1490   -1.8900 hn        1 2WJ      0.327500
     24 H5          6.4870    0.9750    1.8180 ha        1 2WJ      0.158000
     25 H6          8.8610    0.8090    1.0750 ha        1 2WJ      0.140000
     26 H7          7.6160   -0.5440   -2.8460 ha        1 2WJ      0.144000
     27 H8         10.4940   -0.7720    0.5560 ha        1 2WJ      0.143000
     28 H9         12.8810   -0.8850   -0.2400 ha        1 2WJ      0.145000
     29 H10        13.4170   -0.1270   -2.5940 h4        1 2WJ      0.023100
     30 H11         9.4440    0.8320   -3.3490 h4        1 2WJ      0.025100
@<TRIPOS>BOND
     1    1    2 1   
     2    1   20 1   
     3    1   21 1   
     4    1   22 1   
     5    2    3 2   
     6    2    4 1   
     7    4    5 1   
     8    4   23 1   
     9    5    6 2   
    10    5   13 1   
    11    6    7 1   
    12    7    8 ar  
    13    7   12 ar  
    14    8    9 ar  
    15    8   24 1   
    16    9   10 ar  
    17    9   25 1   
    18   10   11 ar  
    19   10   14 1   
    20   11   12 ar  
    21   11   26 1   
    22   12   13 1   
    23   14   15 ar  
    24   14   19 ar  
    25   15   16 ar  
    26   15   27 1   
    27   16   17 ar  
    28   16   28 1   
    29   17   18 ar  
    30   17   29 1   
    31   18   19 ar  
    32   19   30 1   
@<TRIPOS>SUBSTRUCTURE
     1 2WJ         1 TEMP              0 ****  ****    0 ROOT
