@<TRIPOS>MOLECULE
2WJ
   31    33     1     0     0
SMALL
bcc


@<TRIPOS>ATOM
      1 C1          1.0980   -0.3180    0.6970 c3        1 2WJ     -0.181100
      2 C2          1.3760   -0.8910   -0.6460 c         1 2WJ      0.571100
      3 O3          1.1400   -2.0010   -1.0850 o         1 2WJ     -0.398100
      4 N4          2.0410    0.0590   -1.6540 n4        1 2WJ     -0.595800
      5 C5          3.4840    0.0960   -1.4790 cc        1 2WJ      0.271100
      6 N6          4.0520    0.7030   -0.4210 nd        1 2WJ     -0.474100
      7 C7          5.4280    0.5850   -0.5260 ca        1 2WJ      0.064400
      8 C8          6.3790    1.0980    0.3920 ca        1 2WJ     -0.044000
      9 C9          7.7190    0.8980    0.1440 ca        1 2WJ     -0.114000
     10 C10         8.1720    0.1940   -1.0030 cp        1 2WJ      0.060000
     11 C11         7.2490   -0.3170   -1.9150 ca        1 2WJ     -0.105000
     12 C12         5.8840   -0.1300   -1.6930 ca        1 2WJ     -0.073100
     13 S13         4.5690   -0.6290   -2.6110 ss        1 2WJ      0.155900
     14 C14         9.5990    0.0130   -1.2240 cp        1 2WJ     -0.207300
     15 C15        10.4840   -0.2290   -0.1600 ca        1 2WJ     -0.064000
     16 C16        11.8390   -0.3990   -0.4310 ca        1 2WJ     -0.240300
     17 C17        12.2760   -0.3190   -1.7680 ca        1 2WJ      0.427200
     18 N18        11.4460   -0.0830   -2.8030 nb        1 2WJ     -0.652000
     19 C19        10.1400    0.0780   -2.5310 ca        1 2WJ      0.424200
     20 H1          0.5000    0.6250    0.6230 hc        1 2WJ      0.120033
     21 H2          0.5150   -1.0750    1.2880 hc        1 2WJ      0.120033
     22 H3          2.0570   -0.0990    1.2380 hc        1 2WJ      0.120033
     23 H4          1.8430   -0.2640   -2.6110 hn        1 2WJ      0.468800
     24 H5          6.0390    1.6510    1.2820 ha        1 2WJ      0.170000
     25 H6          8.4690    1.3020    0.8460 ha        1 2WJ      0.166000
     26 H7          7.5960   -0.8720   -2.8020 ha        1 2WJ      0.166000
     27 H8         10.1100   -0.2950    0.8730 ha        1 2WJ      0.144000
     28 H9         12.5580   -0.5940    0.3770 ha        1 2WJ      0.161000
     29 H10        13.3440   -0.4490   -2.0270 h4        1 2WJ      0.041100
     30 H11         9.4930    0.2830   -3.4020 h4        1 2WJ      0.025100
     31 H42         1.6550    1.0050   -1.5300 hn        1 2WJ      0.468800
@<TRIPOS>BOND
     1    1    2 1   
     2    1   20 1   
     3    1   21 1   
     4    1   22 1   
     5    2    3 2   
     6    2    4 1   
     7    4    5 1   
     8    4   23 1   
     9    4   31 1   
    10    5    6 2   
    11    5   13 1   
    12    6    7 1   
    13    7    8 ar  
    14    7   12 ar  
    15    8    9 ar  
    16    8   24 1   
    17    9   10 ar  
    18    9   25 1   
    19   10   11 ar  
    20   10   14 1   
    21   11   12 ar  
    22   11   26 1   
    23   12   13 1   
    24   14   15 ar  
    25   14   19 ar  
    26   15   16 ar  
    27   15   27 1   
    28   16   17 ar  
    29   16   28 1   
    30   17   18 ar  
    31   17   29 1   
    32   18   19 ar  
    33   19   30 1   
@<TRIPOS>SUBSTRUCTURE
     1 2WJ         1 TEMP              0 ****  ****    0 ROOT
