@<TRIPOS>MOLECULE
2WJ
   30    32     1     0     0
SMALL
bcc


@<TRIPOS>ATOM
      1 C1         -0.0980   -0.1570   -0.2740 c3        1 2WJ     -0.179100
      2 C2          1.3670   -0.3220    0.0550 c         1 2WJ      0.667100
      3 O3          1.7560   -0.6710    1.1770 o         1 2WJ     -0.532100
      4 N4          2.2540   -0.0960   -1.0080 ns        1 2WJ     -0.484400
      5 C5          3.6360   -0.0060   -0.8900 cc        1 2WJ      0.455800
      6 N6          4.3290    0.3820    0.1790 nd        1 2WJ     -0.531100
      7 C7          5.7000    0.3110   -0.1010 ca        1 2WJ      0.107400
      8 C8          6.7330    0.6340    0.8020 ca        1 2WJ     -0.077000
      9 C9          8.0490    0.5370    0.3830 ca        1 2WJ     -0.117000
     10 C10         8.3790    0.1250   -0.9260 cp        1 2WJ     -0.030000
     11 C11         7.3660   -0.1990   -1.8300 ca        1 2WJ     -0.076000
     12 C12         6.0350   -0.1160   -1.4290 ca        1 2WJ     -0.083100
     13 S13         4.6270   -0.4600   -2.2980 ss        1 2WJ     -0.095100
     14 C14         9.7770    0.0380   -1.3300 cp        1 2WJ     -0.152300
     15 C15        10.7630   -0.4510   -0.4600 ca        1 2WJ     -0.083000
     16 C16        12.0850   -0.5150   -0.8980 ca        1 2WJ     -0.245300
     17 C17        12.3840   -0.0860   -2.2040 ca        1 2WJ      0.395200
     18 N18        11.4550    0.3890   -3.0570 nb        1 2WJ     -0.663000
     19 C19        10.1840    0.4460   -2.6230 ca        1 2WJ      0.404200
     20 H1         -0.6950   -0.3980    0.6400 hc        1 2WJ      0.071033
     21 H2         -0.3990   -0.8500   -1.0970 hc        1 2WJ      0.071033
     22 H3         -0.3130    0.8950   -0.5810 hc        1 2WJ      0.071033
     23 H4          1.8780    0.1680   -1.8900 hn        1 2WJ      0.327500
     24 H5          6.4860    0.9570    1.8240 ha        1 2WJ      0.158000
     25 H6          8.8600    0.7940    1.0820 ha        1 2WJ      0.140000
     26 H7          7.6170   -0.5300   -2.8490 ha        1 2WJ      0.144000
     27 H8         10.4920   -0.7850    0.5530 ha        1 2WJ      0.143000
     28 H9         12.8790   -0.8950   -0.2430 ha        1 2WJ      0.145000
     29 H10        13.4180   -0.1210   -2.5910 h4        1 2WJ      0.023100
     30 H11         9.4470    0.8470   -3.3420 h4        1 2WJ      0.025100
@<TRIPOS>BOND
     1    1    2 1   
     2    1   20 1   
     3    1   21 1   
     4    1   22 1   
     5    2    3 2   
     6    2    4 1   
     7    4    5 1   
     8    4   23 1   
     9    5    6 2   
    10    5   13 1   
    11    6    7 1   
    12    7    8 ar  
    13    7   12 ar  
    14    8    9 ar  
    15    8   24 1   
    16    9   10 ar  
    17    9   25 1   
    18   10   11 ar  
    19   10   14 1   
    20   11   12 ar  
    21   11   26 1   
    22   12   13 1   
    23   14   15 ar  
    24   14   19 ar  
    25   15   16 ar  
    26   15   27 1   
    27   16   17 ar  
    28   16   28 1   
    29   17   18 ar  
    30   17   29 1   
    31   18   19 ar  
    32   19   30 1   
@<TRIPOS>SUBSTRUCTURE
     1 2WJ         1 TEMP              0 ****  ****    0 ROOT
