@<TRIPOS>MOLECULE
2WK
   38    40     1     0     0
SMALL
bcc


@<TRIPOS>ATOM
      1 C1         -0.1290    0.2820   -0.2420 c3        1 2WK     -0.179100
      2 C2          1.3420    0.3490    0.0930 c         1 2WK      0.666100
      3 O3          1.7480    0.5510    1.2440 o         1 2WK     -0.534100
      4 N4          2.2170    0.2170   -0.9960 ns        1 2WK     -0.484400
      5 C5          3.5930    0.0470   -0.8920 cc        1 2WK      0.452800
      6 N6          4.2590   -0.5380    0.1030 nd        1 2WK     -0.529100
      7 C7          5.6340   -0.4840   -0.1580 ca        1 2WK      0.104400
      8 C8          6.6430   -0.9940    0.6830 ca        1 2WK     -0.076000
      9 C9          7.9650   -0.8890    0.2890 ca        1 2WK     -0.120000
     10 C10         8.3260   -0.2860   -0.9350 cp        1 2WK     -0.022000
     11 C11         7.3370    0.2240   -1.7770 ca        1 2WK     -0.079000
     12 C12         5.9990    0.1350   -1.3990 ca        1 2WK     -0.082100
     13 S13         4.6160    0.6770   -2.2050 ss        1 2WK     -0.091100
     14 C14         9.7300   -0.1970   -1.3170 cp        1 2WK     -0.155300
     15 C15        10.7200    0.1140   -0.3660 ca        1 2WK     -0.141000
     16 C16        12.0480    0.1920   -0.7730 ca        1 2WK     -0.001200
     17 C17        12.3570   -0.0530   -2.1550 ca        1 2WK      0.614600
     18 N18        11.4110   -0.3530   -3.0710 nb        1 2WK     -0.709000
     19 C19        10.1330   -0.4190   -2.6460 ca        1 2WK      0.407200
     20 O20        13.6930    0.0420   -2.4770 os        1 2WK     -0.424100
     21 C21        14.0560   -0.1950   -3.8370 c3        1 2WK      0.122700
     22 O22        13.1240    0.4860    0.0340 os        1 2WK     -0.295900
     23 C23        12.8150    0.7700    1.3950 c3        1 2WK      0.107700
     24 H1         -0.4050    1.0750   -0.9780 hc        1 2WK      0.071033
     25 H2         -0.7130    0.4410    0.6980 hc        1 2WK      0.071033
     26 H3         -0.3870   -0.7180   -0.6650 hc        1 2WK      0.071033
     27 H4          1.8300    0.0570   -1.8980 hn        1 2WK      0.327500
     28 H5          6.3720   -1.4670    1.6390 ha        1 2WK      0.157000
     29 H6          8.7580   -1.2930    0.9390 ha        1 2WK      0.139000
     30 H7          7.6120    0.7030   -2.7290 ha        1 2WK      0.144000
     31 H8         10.4350    0.3010    0.6800 ha        1 2WK      0.150000
     32 H9          9.3950   -0.6750   -3.4280 h4        1 2WK      0.028100
     33 H10        13.7850   -1.2340   -4.1430 h1        1 2WK      0.050033
     34 H11        13.5720    0.5520   -4.5110 h1        1 2WK      0.050033
     35 H12        15.1680   -0.0600   -3.8240 h1        1 2WK      0.050033
     36 H13        12.3520   -0.1190    1.8880 h1        1 2WK      0.046700
     37 H14        12.1390    1.6570    1.4720 h1        1 2WK      0.046700
     38 H15        13.8160    0.9950    1.8440 h1        1 2WK      0.046700
@<TRIPOS>BOND
     1    1    2 1   
     2    1   24 1   
     3    1   25 1   
     4    1   26 1   
     5    2    3 2   
     6    2    4 1   
     7    4    5 1   
     8    4   27 1   
     9    5    6 2   
    10    5   13 1   
    11    6    7 1   
    12    7    8 ar  
    13    7   12 ar  
    14    8    9 ar  
    15    8   28 1   
    16    9   10 ar  
    17    9   29 1   
    18   10   11 ar  
    19   10   14 1   
    20   11   12 ar  
    21   11   30 1   
    22   12   13 1   
    23   14   15 ar  
    24   14   19 ar  
    25   15   16 ar  
    26   15   31 1   
    27   16   17 ar  
    28   16   22 1   
    29   17   18 ar  
    30   17   20 1   
    31   18   19 ar  
    32   19   32 1   
    33   20   21 1   
    34   21   33 1   
    35   21   34 1   
    36   21   35 1   
    37   22   23 1   
    38   23   36 1   
    39   23   37 1   
    40   23   38 1   
@<TRIPOS>SUBSTRUCTURE
     1 2WK         1 TEMP              0 ****  ****    0 ROOT
