@<TRIPOS>MOLECULE
2WK
   38    40     1     0     0
SMALL
bcc


@<TRIPOS>ATOM
      1 C1         -0.1280   -0.2740   -0.2250 c3        1 2WK     -0.179100
      2 C2          1.3440   -0.3310    0.1090 c         1 2WK      0.666100
      3 O3          1.7520   -0.4980    1.2650 o         1 2WK     -0.534100
      4 N4          2.2170   -0.2300   -0.9840 n         1 2WK     -0.484400
      5 C5          3.5930   -0.0560   -0.8870 cc        1 2WK      0.452800
      6 N6          4.2590    0.5610    0.0880 nd        1 2WK     -0.529100
      7 C7          5.6340    0.5000   -0.1720 ca        1 2WK      0.103400
      8 C8          6.6430    1.0370    0.6520 ca        1 2WK     -0.076000
      9 C9          7.9650    0.9210    0.2600 ca        1 2WK     -0.120000
     10 C10         8.3260    0.2800   -0.9450 cp        1 2WK     -0.022000
     11 C11         7.3360   -0.2570   -1.7690 ca        1 2WK     -0.079000
     12 C12         5.9990   -0.1590   -1.3930 ca        1 2WK     -0.082100
     13 S13         4.6160   -0.7260   -2.1800 ss        1 2WK     -0.091100
     14 C14         9.7290    0.1800   -1.3250 cp        1 2WK     -0.155300
     15 C15        10.7210   -0.1000   -0.3650 ca        1 2WK     -0.141000
     16 C16        12.0490   -0.1900   -0.7700 ca        1 2WK     -0.001200
     17 C17        12.3560    0.0110   -2.1600 ca        1 2WK      0.614600
     18 N18        11.4090    0.2820   -3.0840 nb        1 2WK     -0.709000
     19 C19        10.1310    0.3600   -2.6610 ca        1 2WK      0.407200
     20 O20        13.6910   -0.0920   -2.4790 os        1 2WK     -0.424100
     21 C21        14.0530    0.1010   -3.8470 c3        1 2WK      0.122700
     22 O22        13.1250   -0.4560    0.0450 os        1 2WK     -0.295900
     23 C23        12.8180   -0.6970    1.4150 c3        1 2WK      0.107700
     24 H1         -0.4040   -1.0890   -0.9370 hc        1 2WK      0.071033
     25 H2         -0.7100   -0.4050    0.7200 hc        1 2WK      0.071033
     26 H3         -0.3880    0.7130   -0.6770 hc        1 2WK      0.071033
     27 H4          1.8280   -0.0970   -1.8900 hn        1 2WK      0.327500
     28 H5          6.3730    1.5400    1.5930 ha        1 2WK      0.157000
     29 H6          8.7580    1.3460    0.8960 ha        1 2WK      0.139000
     30 H7          7.6120   -0.7660   -2.7050 ha        1 2WK      0.144000
     31 H8         10.4370   -0.2530    0.6860 ha        1 2WK      0.150000
     32 H9          9.3920    0.5900   -3.4500 h4        1 2WK      0.028100
     33 H10        15.1650   -0.0330   -3.8310 h1        1 2WK      0.050033
     34 H11        13.5690   -0.6670   -4.4960 h1        1 2WK      0.050033
     35 H12        13.7810    1.1290   -4.1860 h1        1 2WK      0.050033
     36 H13        12.3540    0.2070    1.8790 h1        1 2WK      0.046700
     37 H14        13.8190   -0.9060    1.8690 h1        1 2WK      0.046700
     38 H15        12.1430   -1.5810    1.5200 h1        1 2WK      0.046700
@<TRIPOS>BOND
     1    1    2 1   
     2    1   24 1   
     3    1   25 1   
     4    1   26 1   
     5    2    3 2   
     6    2    4 1   
     7    4    5 1   
     8    4   27 1   
     9    5    6 2   
    10    5   13 1   
    11    6    7 1   
    12    7    8 ar  
    13    7   12 ar  
    14    8    9 ar  
    15    8   28 1   
    16    9   10 ar  
    17    9   29 1   
    18   10   11 ar  
    19   10   14 1   
    20   11   12 ar  
    21   11   30 1   
    22   12   13 1   
    23   14   15 ar  
    24   14   19 ar  
    25   15   16 ar  
    26   15   31 1   
    27   16   17 ar  
    28   16   22 1   
    29   17   18 ar  
    30   17   20 1   
    31   18   19 ar  
    32   19   32 1   
    33   20   21 1   
    34   21   33 1   
    35   21   34 1   
    36   21   35 1   
    37   22   23 1   
    38   23   36 1   
    39   23   37 1   
    40   23   38 1   
@<TRIPOS>SUBSTRUCTURE
     1 2WK         1 TEMP              0 ****  ****    0 ROOT
