@<TRIPOS>MOLECULE
2WK
   39    41     1     0     0
SMALL
bcc


@<TRIPOS>ATOM
      1 C1          1.3810   -0.3630    0.8670 c3        1 2WK     -0.174100
      2 C2          1.3840   -0.9730   -0.4870 c         1 2WK      0.571100
      3 O3          0.9660   -2.0570   -0.8540 o         1 2WK     -0.404100
      4 N4          1.9940   -0.1310   -1.6150 n4        1 2WK     -0.593800
      5 C5          3.4370   -0.0210   -1.4830 cc        1 2WK      0.267100
      6 N6          4.0040    0.6910   -0.4900 nd        1 2WK     -0.472100
      7 C7          5.3800    0.6220   -0.6240 ca        1 2WK      0.058400
      8 C8          6.3300    1.2440    0.2240 ca        1 2WK     -0.043000
      9 C9          7.6710    1.0820   -0.0450 ca        1 2WK     -0.119000
     10 C10         8.1290    0.3100   -1.1460 cp        1 2WK      0.075000
     11 C11         7.2040   -0.3090   -1.9900 ca        1 2WK     -0.113000
     12 C12         5.8400   -0.1620   -1.7450 ca        1 2WK     -0.067100
     13 S13         4.5250   -0.7840   -2.5860 ss        1 2WK      0.147900
     14 C14         9.5530    0.1740   -1.3950 cp        1 2WK     -0.215300
     15 C15        10.4740    0.0860   -0.3270 ca        1 2WK     -0.135000
     16 C16        11.8260   -0.0460   -0.6120 ca        1 2WK      0.005800
     17 C17        12.2390   -0.0820   -1.9950 ca        1 2WK      0.651600
     18 N18        11.3600    0.0080   -3.0170 nb        1 2WK     -0.711000
     19 C19        10.0540    0.1290   -2.7090 ca        1 2WK      0.437200
     20 O20        13.5880   -0.2110   -2.1890 os        1 2WK     -0.409100
     21 C21        14.0650   -0.2500   -3.5390 c3        1 2WK      0.118700
     22 O22        12.8420   -0.1520    0.3050 os        1 2WK     -0.285900
     23 C23        12.4520   -0.1300    1.6770 c3        1 2WK      0.105700
     24 H1          0.4980   -0.7640    1.4330 hc        1 2WK      0.119033
     25 H2          1.3340    0.7530    0.8470 hc        1 2WK      0.119033
     26 H3          2.3210   -0.6700    1.4030 hc        1 2WK      0.119033
     27 H4          1.5750    0.8090   -1.5910 hn        1 2WK      0.468800
     28 H5          5.9890    1.8520    1.0770 ha        1 2WK      0.169000
     29 H6          8.4180    1.5750    0.6010 ha        1 2WK      0.165000
     30 H7          7.5530   -0.9180   -2.8390 ha        1 2WK      0.165000
     31 H8         10.1170    0.1050    0.7130 ha        1 2WK      0.149000
     32 H9          9.3820    0.2120   -3.5820 h4        1 2WK      0.026100
     33 H10        13.8160    0.7000   -4.0700 h1        1 2WK      0.060033
     34 H11        15.1720   -0.3550   -3.4010 h1        1 2WK      0.060033
     35 H12        13.6420   -1.1290   -4.0790 h1        1 2WK      0.060033
     36 H13        13.4280   -0.2320    2.2180 h1        1 2WK      0.051700
     37 H14        11.9580    0.8390    1.9300 h1        1 2WK      0.051700
     38 H15        11.7780   -0.9900    1.9090 h1        1 2WK      0.051700
     39 H42         1.7840   -0.5690   -2.5230 hn        1 2WK      0.468800
@<TRIPOS>BOND
     1    1    2 1   
     2    1   24 1   
     3    1   25 1   
     4    1   26 1   
     5    2    3 2   
     6    2    4 1   
     7    4    5 1   
     8    4   27 1   
     9    4   39 1   
    10    5    6 2   
    11    5   13 1   
    12    6    7 1   
    13    7    8 ar  
    14    7   12 ar  
    15    8    9 ar  
    16    8   28 1   
    17    9   10 ar  
    18    9   29 1   
    19   10   11 ar  
    20   10   14 1   
    21   11   12 ar  
    22   11   30 1   
    23   12   13 1   
    24   14   15 ar  
    25   14   19 ar  
    26   15   16 ar  
    27   15   31 1   
    28   16   17 ar  
    29   16   22 1   
    30   17   18 ar  
    31   17   20 1   
    32   18   19 ar  
    33   19   32 1   
    34   20   21 1   
    35   21   33 1   
    36   21   34 1   
    37   21   35 1   
    38   22   23 1   
    39   23   36 1   
    40   23   37 1   
    41   23   38 1   
@<TRIPOS>SUBSTRUCTURE
     1 2WK         1 TEMP              0 ****  ****    0 ROOT
