@<TRIPOS>MOLECULE
2WL
   48    51     1     0     0
SMALL
bcc


@<TRIPOS>ATOM
      1 Cl1         0.3790   -0.0740    0.3850 cl        1 2WL     -0.075400
      2 C2          2.0660   -0.2060    0.2250 ca        1 2WL      0.039400
      3 C3          2.8350   -0.3150    1.3890 ca        1 2WL     -0.129000
      4 C4          4.2200   -0.4240    1.3060 ca        1 2WL     -0.123000
      5 C5          4.8450   -0.4250    0.0590 ca        1 2WL     -0.126000
      6 C6          4.0880   -0.3160   -1.1030 ca        1 2WL     -0.146000
      7 C1          2.6830   -0.2060   -1.0460 ca        1 2WL      0.092600
      8 N1          1.8670   -0.0990   -2.2200 nh        1 2WL     -0.615000
      9 C10         1.9760   -1.2620   -3.0930 c3        1 2WL      0.157300
     10 C9          1.0640   -1.1470   -4.3310 c3        1 2WL      0.098500
     11 C7          2.0750    1.1550   -2.9330 c3        1 2WL      0.157300
     12 C8          1.1910    1.2910   -4.1960 c3        1 2WL      0.098500
     13 N4          1.1960    0.1140   -5.0270 n         1 2WL     -0.464800
     14 C21         1.2250    0.1370   -6.4100 c         1 2WL      0.612600
     15 O1          1.3800   -0.9250   -7.0550 o         1 2WL     -0.623100
     16 C11         1.0810    1.4120   -7.1420 cc        1 2WL      0.241800
     17 C20         1.7480    1.7010   -8.3530 cd        1 2WL     -0.183600
     18 N2          0.1940    2.4510   -6.8260 nc        1 2WL     -0.644000
     19 C12         0.3220    3.3530   -7.8170 cd        1 2WL      0.397400
     20 N3          1.2800    2.9460   -8.7670 na        1 2WL     -0.205900
     21 C13         1.6270    3.6270   -9.9820 c3        1 2WL      0.086600
     22 C14         0.7340    3.3420  -11.1560 ca        1 2WL     -0.124300
     23 C15         0.4340    2.0280  -11.5280 ca        1 2WL     -0.112000
     24 C19         0.2300    4.4080  -11.9080 ca        1 2WL     -0.112000
     25 C18        -0.5620    4.1590  -13.0280 ca        1 2WL     -0.127000
     26 C17        -0.8600    2.8470  -13.3970 ca        1 2WL     -0.118000
     27 C16        -0.3630    1.7830  -12.6450 ca        1 2WL     -0.127000
     28 H1          2.3410   -0.3140    2.3730 ha        1 2WL      0.147000
     29 H2          4.8190   -0.5100    2.2240 ha        1 2WL      0.137000
     30 H3          5.9390   -0.5110   -0.0080 ha        1 2WL      0.136000
     31 H4          4.5950   -0.3170   -2.0810 ha        1 2WL      0.139000
     32 H5          3.0380   -1.4350   -3.4330 h1        1 2WL      0.042950
     33 H6          1.6460   -2.1640   -2.5060 h1        1 2WL      0.042950
     34 H7          1.3200   -1.9940   -5.0300 h1        1 2WL      0.064950
     35 H8         -0.0090   -1.2640   -4.0040 h1        1 2WL      0.064950
     36 H9          3.1550    1.2870   -3.2330 h1        1 2WL      0.042950
     37 H10         1.8010    1.9950   -2.2370 h1        1 2WL      0.042950
     38 H11         1.5910    2.1750   -4.7640 h1        1 2WL      0.064950
     39 H12         0.1320    1.5140   -3.8790 h1        1 2WL      0.064950
     40 H13         2.4880    1.1220   -8.9050 h4        1 2WL      0.193000
     41 H14        -0.2280    4.2950   -7.9010 h5        1 2WL      0.066100
     42 H15         2.6810    3.3270  -10.2590 h1        1 2WL      0.069700
     43 H16         1.6220    4.7360   -9.7660 h1        1 2WL      0.069700
     44 H17         0.8220    1.1850  -10.9340 ha        1 2WL      0.137000
     45 H18         0.4570    5.4450  -11.6200 ha        1 2WL      0.137000
     46 H19        -0.9550    5.0000  -13.6190 ha        1 2WL      0.138000
     47 H20        -1.4880    2.6520  -14.2790 ha        1 2WL      0.136000
     48 H21        -0.6000    0.7470  -12.9310 ha        1 2WL      0.138000
@<TRIPOS>BOND
     1    1    2 1   
     2    2    3 ar  
     3    2    7 ar  
     4    3    4 ar  
     5    3   28 1   
     6    4    5 ar  
     7    4   29 1   
     8    5    6 ar  
     9    5   30 1   
    10    6    7 ar  
    11    6   31 1   
    12    7    8 1   
    13    8    9 1   
    14    8   11 1   
    15    9   10 1   
    16    9   32 1   
    17    9   33 1   
    18   10   13 1   
    19   10   34 1   
    20   10   35 1   
    21   11   12 1   
    22   11   36 1   
    23   11   37 1   
    24   12   13 1   
    25   12   38 1   
    26   12   39 1   
    27   13   14 1   
    28   14   15 2   
    29   14   16 1   
    30   16   17 2   
    31   16   18 1   
    32   17   20 1   
    33   17   40 1   
    34   18   19 2   
    35   19   20 1   
    36   19   41 1   
    37   20   21 1   
    38   21   22 1   
    39   21   42 1   
    40   21   43 1   
    41   22   23 ar  
    42   22   24 ar  
    43   23   27 ar  
    44   23   44 1   
    45   24   25 ar  
    46   24   45 1   
    47   25   26 ar  
    48   25   46 1   
    49   26   27 ar  
    50   26   47 1   
    51   27   48 1   
@<TRIPOS>SUBSTRUCTURE
     1 2WL         1 TEMP              0 ****  ****    0 ROOT
