@<TRIPOS>MOLECULE
2WL
   48    51     1     0     0
SMALL
bcc


@<TRIPOS>ATOM
      1 CL1         0.4010   -0.0170    0.4050 cl        1 2WL     -0.075400
      2 C2          2.0820   -0.1850    0.2290 ca        1 2WL      0.039400
      3 C3          2.8620   -0.3040    1.3850 ca        1 2WL     -0.129000
      4 C4          4.2430   -0.4430    1.2880 ca        1 2WL     -0.123000
      5 C5          4.8540   -0.4630    0.0350 ca        1 2WL     -0.126000
      6 C6          4.0880   -0.3450   -1.1190 ca        1 2WL     -0.146000
      7 C1          2.6860   -0.2050   -1.0480 ca        1 2WL      0.092600
      8 N1          1.8600   -0.0870   -2.2150 nh        1 2WL     -0.615000
      9 C10         1.9370   -1.2560   -3.0830 c3        1 2WL      0.157300
     10 C9          1.0160   -1.1290   -4.3130 c3        1 2WL      0.098500
     11 C7          2.0840    1.1590   -2.9360 c3        1 2WL      0.157300
     12 C8          1.1900    1.3060   -4.1890 c3        1 2WL      0.098500
     13 N4          1.1650    0.1270   -5.0160 n         1 2WL     -0.464800
     14 C21         1.1920    0.1420   -6.3980 c         1 2WL      0.612600
     15 O1          1.3250   -0.9250   -7.0390 o         1 2WL     -0.623100
     16 C11         1.0680    1.4170   -7.1360 cc        1 2WL      0.241800
     17 C20         1.7380    1.6890   -8.3500 cd        1 2WL     -0.183600
     18 N2          0.2000    2.4720   -6.8230 nc        1 2WL     -0.644000
     19 C12         0.3420    3.3670   -7.8180 cd        1 2WL      0.397400
     20 N3          1.2900    2.9400   -8.7680 na        1 2WL     -0.205900
     21 C13         1.6470    3.6090   -9.9870 c3        1 2WL      0.086600
     22 C14         0.7480    3.3330  -11.1590 ca        1 2WL     -0.124300
     23 C15         0.4280    2.0220  -11.5240 ca        1 2WL     -0.112000
     24 C19         0.2600    4.4030  -11.9150 ca        1 2WL     -0.112000
     25 C18        -0.5370    4.1610  -13.0340 ca        1 2WL     -0.127000
     26 C17        -0.8550    2.8520  -13.3970 ca        1 2WL     -0.118000
     27 C16        -0.3730    1.7840  -12.6400 ca        1 2WL     -0.127000
     28 H1          2.3780   -0.2880    2.3740 ha        1 2WL      0.147000
     29 H2          4.8490   -0.5370    2.2010 ha        1 2WL      0.137000
     30 H3          5.9460   -0.5720   -0.0430 ha        1 2WL      0.136000
     31 H4          4.5840   -0.3610   -2.1030 ha        1 2WL      0.139000
     32 H5          2.9920   -1.4510   -3.4330 h1        1 2WL      0.042950
     33 H6          1.5960   -2.1490   -2.4890 h1        1 2WL      0.042950
     34 H7          1.2470   -1.9840   -5.0100 h1        1 2WL      0.064950
     35 H8         -0.0570   -1.2230   -3.9750 h1        1 2WL      0.064950
     36 H9          3.1640    1.2700   -3.2470 h1        1 2WL      0.042950
     37 H10         1.8330    2.0080   -2.2400 h1        1 2WL      0.042950
     38 H11         0.1380    1.5500   -3.8630 h1        1 2WL      0.064950
     39 H12         1.6000    2.1810   -4.7650 h1        1 2WL      0.064950
     40 H13         2.4660    1.0950   -8.9010 h4        1 2WL      0.193000
     41 H14        -0.1920    4.3190   -7.9060 h5        1 2WL      0.066100
     42 H15         1.6600    4.7190   -9.7760 h1        1 2WL      0.069700
     43 H16         2.6960    3.2920  -10.2640 h1        1 2WL      0.069700
     44 H17         0.8030    1.1750  -10.9270 ha        1 2WL      0.137000
     45 H18         0.5030    5.4380  -11.6320 ha        1 2WL      0.137000
     46 H19        -0.9170    5.0050  -13.6280 ha        1 2WL      0.138000
     47 H20        -1.4860    2.6630  -14.2770 ha        1 2WL      0.136000
     48 H21        -0.6250    0.7500  -12.9210 ha        1 2WL      0.138000
@<TRIPOS>BOND
     1    1    2 1   
     2    2    3 ar  
     3    2    7 ar  
     4    3    4 ar  
     5    3   28 1   
     6    4    5 ar  
     7    4   29 1   
     8    5    6 ar  
     9    5   30 1   
    10    6    7 ar  
    11    6   31 1   
    12    7    8 1   
    13    8    9 1   
    14    8   11 1   
    15    9   10 1   
    16    9   32 1   
    17    9   33 1   
    18   10   13 1   
    19   10   34 1   
    20   10   35 1   
    21   11   12 1   
    22   11   36 1   
    23   11   37 1   
    24   12   13 1   
    25   12   38 1   
    26   12   39 1   
    27   13   14 1   
    28   14   15 2   
    29   14   16 1   
    30   16   17 2   
    31   16   18 1   
    32   17   20 1   
    33   17   40 1   
    34   18   19 2   
    35   19   20 1   
    36   19   41 1   
    37   20   21 1   
    38   21   22 1   
    39   21   42 1   
    40   21   43 1   
    41   22   23 ar  
    42   22   24 ar  
    43   23   27 ar  
    44   23   44 1   
    45   24   25 ar  
    46   24   45 1   
    47   25   26 ar  
    48   25   46 1   
    49   26   27 ar  
    50   26   47 1   
    51   27   48 1   
@<TRIPOS>SUBSTRUCTURE
     1 2WL         1 TEMP              0 ****  ****    0 ROOT
