@<TRIPOS>MOLECULE
2WL
   48    51     1     0     0
SMALL
bcc


@<TRIPOS>ATOM
      1 CL1         0.3740   -0.0240    0.3970 cl        1 2WL     -0.075400
      2 C2          2.0570   -0.1870    0.2310 ca        1 2WL      0.039400
      3 C3          2.8300   -0.3050    1.3910 ca        1 2WL     -0.129000
      4 C4          4.2120   -0.4410    1.3030 ca        1 2WL     -0.123000
      5 C5          4.8310   -0.4580    0.0540 ca        1 2WL     -0.126000
      6 C6          4.0720   -0.3410   -1.1050 ca        1 2WL     -0.146000
      7 C1          2.6700   -0.2050   -1.0430 ca        1 2WL      0.092600
      8 N1          1.8500   -0.0870   -2.2140 nh        1 2WL     -0.615000
      9 C10         1.9330   -1.2560   -3.0820 c3        1 2WL      0.157300
     10 C9          1.0190   -1.1300   -4.3170 c3        1 2WL      0.098500
     11 C7          2.0790    1.1590   -2.9340 c3        1 2WL      0.157300
     12 C8          1.1920    1.3060   -4.1930 c3        1 2WL      0.098500
     13 N4          1.1720    0.1260   -5.0190 n         1 2WL     -0.464800
     14 C21         1.2000    0.1410   -6.4020 c         1 2WL      0.612600
     15 O1          1.3340   -0.9260   -7.0430 o         1 2WL     -0.623100
     16 C11         1.0780    1.4160   -7.1410 cc        1 2WL      0.241800
     17 C20         1.7490    1.6870   -8.3530 cd        1 2WL     -0.183600
     18 N2          0.2100    2.4710   -6.8280 nc        1 2WL     -0.644000
     19 C12         0.3540    3.3660   -7.8230 cd        1 2WL      0.397400
     20 N3          1.3030    2.9380   -8.7720 na        1 2WL     -0.205900
     21 C13         1.6610    3.6070   -9.9910 c3        1 2WL      0.086600
     22 C14         0.7620    3.3320  -11.1630 ca        1 2WL     -0.124300
     23 C15         0.4390    2.0220  -11.5280 ca        1 2WL     -0.112000
     24 C19         0.2760    4.4030  -11.9200 ca        1 2WL     -0.112000
     25 C18        -0.5210    4.1630  -13.0380 ca        1 2WL     -0.127000
     26 C17        -0.8420    2.8540  -13.4010 ca        1 2WL     -0.118000
     27 C16        -0.3620    1.7850  -12.6440 ca        1 2WL     -0.127000
     28 H1          2.3400   -0.2910    2.3770 ha        1 2WL      0.147000
     29 H2          4.8130   -0.5340    2.2200 ha        1 2WL      0.137000
     30 H3          5.9240   -0.5640   -0.0170 ha        1 2WL      0.136000
     31 H4          4.5740   -0.3550   -2.0860 ha        1 2WL      0.139000
     32 H5          2.9910   -1.4510   -3.4260 h1        1 2WL      0.042950
     33 H6          1.5900   -2.1500   -2.4900 h1        1 2WL      0.042950
     34 H7          1.2560   -1.9850   -5.0130 h1        1 2WL      0.064950
     35 H8         -0.0550   -1.2240   -3.9850 h1        1 2WL      0.064950
     36 H9          1.8230    2.0080   -2.2400 h1        1 2WL      0.042950
     37 H10         3.1600    1.2700   -3.2390 h1        1 2WL      0.042950
     38 H11         0.1380    1.5500   -3.8730 h1        1 2WL      0.064950
     39 H12         1.6060    2.1800   -4.7670 h1        1 2WL      0.064950
     40 H13         2.4780    1.0920   -8.9030 h4        1 2WL      0.193000
     41 H14        -0.1800    4.3180   -7.9120 h5        1 2WL      0.066100
     42 H15         1.6760    4.7160   -9.7800 h1        1 2WL      0.069700
     43 H16         2.7090    3.2880  -10.2670 h1        1 2WL      0.069700
     44 H17         0.8120    1.1750  -10.9310 ha        1 2WL      0.137000
     45 H18         0.5220    5.4380  -11.6370 ha        1 2WL      0.137000
     46 H19        -0.8990    5.0080  -13.6330 ha        1 2WL      0.138000
     47 H20        -1.4740    2.6670  -14.2810 ha        1 2WL      0.136000
     48 H21        -0.6170    0.7520  -12.9250 ha        1 2WL      0.138000
@<TRIPOS>BOND
     1    1    2 1   
     2    2    3 ar  
     3    2    7 ar  
     4    3    4 ar  
     5    3   28 1   
     6    4    5 ar  
     7    4   29 1   
     8    5    6 ar  
     9    5   30 1   
    10    6    7 ar  
    11    6   31 1   
    12    7    8 1   
    13    8    9 1   
    14    8   11 1   
    15    9   10 1   
    16    9   32 1   
    17    9   33 1   
    18   10   13 1   
    19   10   34 1   
    20   10   35 1   
    21   11   12 1   
    22   11   36 1   
    23   11   37 1   
    24   12   13 1   
    25   12   38 1   
    26   12   39 1   
    27   13   14 1   
    28   14   15 2   
    29   14   16 1   
    30   16   17 2   
    31   16   18 1   
    32   17   20 1   
    33   17   40 1   
    34   18   19 2   
    35   19   20 1   
    36   19   41 1   
    37   20   21 1   
    38   21   22 1   
    39   21   42 1   
    40   21   43 1   
    41   22   23 ar  
    42   22   24 ar  
    43   23   27 ar  
    44   23   44 1   
    45   24   25 ar  
    46   24   45 1   
    47   25   26 ar  
    48   25   46 1   
    49   26   27 ar  
    50   26   47 1   
    51   27   48 1   
@<TRIPOS>SUBSTRUCTURE
     1 2WL         1 TEMP              0 ****  ****    0 ROOT
