@<TRIPOS>MOLECULE
2WM
  122   121     1     0     0
SMALL
bcc


@<TRIPOS>ATOM
      1 CBF         0.6160    2.2370    2.2590 c3        1 2WM     -0.092100
      2 CBE         1.5460    1.2160    2.8610 c3        1 2WM     -0.080400
      3 CBD         2.8340    1.8520    3.3400 c3        1 2WM     -0.079400
      4 CBC         3.7650    0.8230    3.9440 c3        1 2WM     -0.079400
      5 CBB         5.0520    1.4600    4.4230 c3        1 2WM     -0.079400
      6 CBA         5.9830    0.4310    5.0280 c3        1 2WM     -0.079400
      7 CAZ         7.2700    1.0680    5.5070 c3        1 2WM     -0.079400
      8 CAY         8.2000    0.0400    6.1140 c3        1 2WM     -0.079400
      9 CAX         9.4860    0.6770    6.5950 c3        1 2WM     -0.079400
     10 CAW        10.4150   -0.3510    7.2030 c3        1 2WM     -0.079400
     11 CAV        11.7000    0.2860    7.6860 c3        1 2WM     -0.079400
     12 CAU        12.6270   -0.7420    8.2970 c3        1 2WM     -0.079400
     13 CAT        13.9110   -0.1030    8.7840 c3        1 2WM     -0.079400
     14 CAS        14.8370   -1.1310    9.3980 c3        1 2WM     -0.079400
     15 CAR        16.1170   -0.4910    9.8890 c3        1 2WM     -0.078400
     16 CAQ        17.0420   -1.5200   10.5040 c3        1 2WM     -0.080400
     17 CAP        18.3120   -0.8750   11.0130 c3        1 2WM     -0.102400
     18 CAO        19.2680   -1.9370   11.5520 c3        1 2WM      0.328900
     19 OAD        19.7950   -2.7860   10.5620 oh        1 2WM     -0.624800
     20 OAN        20.3890   -1.2450   12.0840 os        1 2WM     -0.447600
     21 CAM        21.2670   -2.0510   12.8680 c3        1 2WM      0.102100
     22 CAL        22.5500   -1.2240   13.0220 c3        1 2WM      0.140400
     23 OAK        22.4770   -0.2740   14.0620 oh        1 2WM     -0.605800
     24 CBI        20.6590   -2.4200   14.2230 c3        1 2WM      0.109400
     25 OBJ        19.9980   -1.2650   14.7360 os        1 2WM     -0.453600
     26 CBK        19.4840   -1.4460   16.0490 c3        1 2WM      0.327900
     27 OCC        18.3560   -2.2690   15.8890 oh        1 2WM     -0.622800
     28 CBL        19.1660   -0.0540   16.5920 c3        1 2WM     -0.105400
     29 CBM        18.6750   -0.1450   18.0200 c3        1 2WM     -0.079400
     30 CBN        18.2670    1.2150   18.5430 c3        1 2WM     -0.078400
     31 CBO        17.7780    1.1260   19.9730 c3        1 2WM     -0.079400
     32 CBP        17.3670    2.4860   20.4970 c3        1 2WM     -0.077400
     33 CBQ        16.8690    2.3940   21.9240 c3        1 2WM     -0.049200
     34 CBR        16.4570    3.7120   22.4620 c2        1 2WM     -0.175200
     35 CBS        15.8950    3.8810   23.6640 c2        1 2WM     -0.173200
     36 CBT        15.6090    2.7710   24.6020 c3        1 2WM     -0.049200
     37 CBU        15.0410    3.2620   25.9180 c3        1 2WM     -0.077400
     38 CBV        14.7580    2.1080   26.8550 c3        1 2WM     -0.079400
     39 CBW        14.1870    2.5960   28.1700 c3        1 2WM     -0.079400
     40 CBX        13.9030    1.4420   29.1070 c3        1 2WM     -0.079400
     41 CBY        13.3310    1.9300   30.4210 c3        1 2WM     -0.079400
     42 CBZ        13.0460    0.7760   31.3590 c3        1 2WM     -0.079400
     43 CCA        12.4740    1.2630   32.6730 c3        1 2WM     -0.080400
     44 CCB        12.1880    0.1170   33.6100 c3        1 2WM     -0.092100
     45 H1          0.3510    3.0200    3.0100 hc        1 2WM      0.032700
     46 H2          1.0940    2.7390    1.3840 hc        1 2WM      0.032700
     47 H3         -0.3260    1.7470    1.9130 hc        1 2WM      0.032700
     48 H4          1.0390    0.7050    3.7220 hc        1 2WM      0.038700
     49 H5          1.7810    0.4250    2.1010 hc        1 2WM      0.038700
     50 H6          2.6020    2.6420    4.1010 hc        1 2WM      0.039700
     51 H7          3.3440    2.3610    2.4800 hc        1 2WM      0.039700
     52 H8          3.2560    0.3130    4.8040 hc        1 2WM      0.039700
     53 H9          3.9970    0.0320    3.1830 hc        1 2WM      0.039700
     54 H10         5.5620    1.9690    3.5630 hc        1 2WM      0.039700
     55 H11         4.8200    2.2510    5.1840 hc        1 2WM      0.039700
     56 H12         6.2160   -0.3600    4.2670 hc        1 2WM      0.039700
     57 H13         5.4730   -0.0780    5.8880 hc        1 2WM      0.039700
     58 H14         7.0370    1.8600    6.2680 hc        1 2WM      0.039700
     59 H15         7.7810    1.5760    4.6470 hc        1 2WM      0.039700
     60 H16         8.4330   -0.7510    5.3530 hc        1 2WM      0.039700
     61 H17         7.6880   -0.4690    6.9730 hc        1 2WM      0.039700
     62 H18         9.2520    1.4690    7.3540 hc        1 2WM      0.039700
     63 H19         9.9980    1.1850    5.7350 hc        1 2WM      0.039700
     64 H20         9.9020   -0.8610    8.0610 hc        1 2WM      0.039700
     65 H21        10.6500   -1.1420    6.4430 hc        1 2WM      0.039700
     66 H22        11.4640    1.0790    8.4450 hc        1 2WM      0.039700
     67 H23        12.2140    0.7940    6.8280 hc        1 2WM      0.039700
     68 H24        12.1120   -1.2500    9.1550 hc        1 2WM      0.039700
     69 H25        12.8650   -1.5330    7.5380 hc        1 2WM      0.039700
     70 H26        14.4270    0.4040    7.9260 hc        1 2WM      0.039700
     71 H27        13.6730    0.6900    9.5410 hc        1 2WM      0.039700
     72 H28        14.3190   -1.6400   10.2530 hc        1 2WM      0.041200
     73 H29        15.0780   -1.9210    8.6400 hc        1 2WM      0.041200
     74 H30        16.6360    0.0180    9.0340 hc        1 2WM      0.040700
     75 H31        15.8770    0.3000   10.6480 hc        1 2WM      0.040700
     76 H32        16.5180   -2.0400   11.3490 hc        1 2WM      0.047700
     77 H33        17.3030   -2.3030    9.7430 hc        1 2WM      0.047700
     78 H34        18.8170   -0.3060   10.1900 hc        1 2WM      0.059700
     79 H35        18.0850   -0.1500   11.8360 hc        1 2WM      0.059700
     80 H36        18.7820   -2.6130   12.3080 h2        1 2WM      0.080700
     81 H37        20.2090   -2.2360    9.8860 ho        1 2WM      0.412000
     82 H38        21.4950   -3.0040   12.3110 h1        1 2WM      0.066700
     83 H39        22.7730   -0.7050   12.0520 h1        1 2WM      0.050700
     84 H40        23.4030   -1.8990   13.3000 h1        1 2WM      0.050700
     85 H41        21.6040    0.1390   14.0140 ho        1 2WM      0.425000
     86 H42        21.4770   -2.7330   14.9240 h1        1 2WM      0.045200
     87 H43        19.9130   -3.2510   14.1190 h1        1 2WM      0.045200
     88 H44        20.1870   -2.0190   16.7150 h2        1 2WM      0.079700
     89 H45        17.7230   -1.8020   15.3310 ho        1 2WM      0.411000
     90 H46        18.3890    0.4270   15.9440 hc        1 2WM      0.060200
     91 H47        20.0930    0.5720   16.5320 hc        1 2WM      0.060200
     92 H48        17.8040   -0.8510   18.0680 hc        1 2WM      0.047700
     93 H49        19.4840   -0.5720   18.6700 hc        1 2WM      0.047700
     94 H50        17.4570    1.6410   17.8950 hc        1 2WM      0.041200
     95 H51        19.1400    1.9180   18.4860 hc        1 2WM      0.041200
     96 H52        18.5880    0.7020   20.6230 hc        1 2WM      0.040700
     97 H53        16.9070    0.4220   20.0290 hc        1 2WM      0.040700
     98 H54        16.5610    2.9130   19.8440 hc        1 2WM      0.041700
     99 H55        18.2400    3.1880   20.4470 hc        1 2WM      0.041700
    100 H56        17.6770    1.9620   22.5770 hc        1 2WM      0.047700
    101 H57        16.0000    1.6800   21.9740 hc        1 2WM      0.047700
    102 H58        16.6430    4.5790   21.8080 ha        1 2WM      0.122000
    103 H59        15.6140    4.8890   24.0090 ha        1 2WM      0.122000
    104 H60        14.8840    2.0560   24.1230 hc        1 2WM      0.047700
    105 H61        16.5530    2.1900   24.7940 hc        1 2WM      0.047700
    106 H62        15.7650    3.9700   26.3990 hc        1 2WM      0.041700
    107 H63        14.0940    3.8340   25.7280 hc        1 2WM      0.041700
    108 H64        15.7040    1.5360   27.0450 hc        1 2WM      0.039700
    109 H65        14.0350    1.3990   26.3720 hc        1 2WM      0.039700
    110 H66        14.9100    3.3040   28.6540 hc        1 2WM      0.039700
    111 H67        13.2410    3.1680   27.9800 hc        1 2WM      0.039700
    112 H68        14.8490    0.8710   29.2980 hc        1 2WM      0.039700
    113 H69        13.1810    0.7330   28.6230 hc        1 2WM      0.039700
    114 H70        12.3850    2.5020   30.2300 hc        1 2WM      0.039700
    115 H71        14.0540    2.6390   30.9060 hc        1 2WM      0.039700
    116 H72        13.9920    0.2040   31.5500 hc        1 2WM      0.039700
    117 H73        12.3240    0.0680   30.8740 hc        1 2WM      0.039700
    118 H74        13.1970    1.9730   33.1550 hc        1 2WM      0.038700
    119 H75        11.5280    1.8360   32.4790 hc        1 2WM      0.038700
    120 H76        13.1230   -0.4510   33.8340 hc        1 2WM      0.032700
    121 H77        11.4510   -0.5880   33.1560 hc        1 2WM      0.032700
    122 H78        11.7670    0.4980   34.5710 hc        1 2WM      0.032700
@<TRIPOS>BOND
     1    1    2 1   
     2    1   45 1   
     3    1   46 1   
     4    1   47 1   
     5    2    3 1   
     6    2   48 1   
     7    2   49 1   
     8    3    4 1   
     9    3   50 1   
    10    3   51 1   
    11    4    5 1   
    12    4   52 1   
    13    4   53 1   
    14    5    6 1   
    15    5   54 1   
    16    5   55 1   
    17    6    7 1   
    18    6   56 1   
    19    6   57 1   
    20    7    8 1   
    21    7   58 1   
    22    7   59 1   
    23    8    9 1   
    24    8   60 1   
    25    8   61 1   
    26    9   10 1   
    27    9   62 1   
    28    9   63 1   
    29   10   11 1   
    30   10   64 1   
    31   10   65 1   
    32   11   12 1   
    33   11   66 1   
    34   11   67 1   
    35   12   13 1   
    36   12   68 1   
    37   12   69 1   
    38   13   14 1   
    39   13   70 1   
    40   13   71 1   
    41   14   15 1   
    42   14   72 1   
    43   14   73 1   
    44   15   16 1   
    45   15   74 1   
    46   15   75 1   
    47   16   17 1   
    48   16   76 1   
    49   16   77 1   
    50   17   18 1   
    51   17   78 1   
    52   17   79 1   
    53   18   19 1   
    54   18   20 1   
    55   18   80 1   
    56   19   81 1   
    57   20   21 1   
    58   21   22 1   
    59   21   24 1   
    60   21   82 1   
    61   22   23 1   
    62   22   83 1   
    63   22   84 1   
    64   23   85 1   
    65   24   25 1   
    66   24   86 1   
    67   24   87 1   
    68   25   26 1   
    69   26   27 1   
    70   26   28 1   
    71   26   88 1   
    72   27   89 1   
    73   28   29 1   
    74   28   90 1   
    75   28   91 1   
    76   29   30 1   
    77   29   92 1   
    78   29   93 1   
    79   30   31 1   
    80   30   94 1   
    81   30   95 1   
    82   31   32 1   
    83   31   96 1   
    84   31   97 1   
    85   32   33 1   
    86   32   98 1   
    87   32   99 1   
    88   33   34 1   
    89   33  100 1   
    90   33  101 1   
    91   34   35 2   
    92   34  102 1   
    93   35   36 1   
    94   35  103 1   
    95   36   37 1   
    96   36  104 1   
    97   36  105 1   
    98   37   38 1   
    99   37  106 1   
   100   37  107 1   
   101   38   39 1   
   102   38  108 1   
   103   38  109 1   
   104   39   40 1   
   105   39  110 1   
   106   39  111 1   
   107   40   41 1   
   108   40  112 1   
   109   40  113 1   
   110   41   42 1   
   111   41  114 1   
   112   41  115 1   
   113   42   43 1   
   114   42  116 1   
   115   42  117 1   
   116   43   44 1   
   117   43  118 1   
   118   43  119 1   
   119   44  120 1   
   120   44  121 1   
   121   44  122 1   
@<TRIPOS>SUBSTRUCTURE
     1 2WM         1 TEMP              0 ****  ****    0 ROOT
