@<TRIPOS>MOLECULE
2WM
  122   121     1     0     0
SMALL
bcc


@<TRIPOS>ATOM
      1 CBF         0.1530    2.2210    3.2910 c3        1 2WM     -0.092100
      2 CBE         1.5140    1.5970    3.1180 c3        1 2WM     -0.080400
      3 CBD         2.3690    1.7780    4.3540 c3        1 2WM     -0.079400
      4 CBC         3.7350    1.1500    4.1760 c3        1 2WM     -0.079400
      5 CBB         4.5890    1.3310    5.4120 c3        1 2WM     -0.079400
      6 CBA         5.9550    0.7030    5.2330 c3        1 2WM     -0.079400
      7 CAZ         6.8090    0.8850    6.4690 c3        1 2WM     -0.079400
      8 CAY         8.1750    0.2570    6.2910 c3        1 2WM     -0.079400
      9 CAX         9.0290    0.4380    7.5270 c3        1 2WM     -0.079400
     10 CAW        10.3950   -0.1900    7.3480 c3        1 2WM     -0.079400
     11 CAV        11.2490   -0.0090    8.5840 c3        1 2WM     -0.079400
     12 CAU        12.6140   -0.6370    8.4050 c3        1 2WM     -0.079400
     13 CAT        13.4690   -0.4560    9.6420 c3        1 2WM     -0.079400
     14 CAS        14.8340   -1.0850    9.4620 c3        1 2WM     -0.079400
     15 CAR        15.6880   -0.9040   10.6990 c3        1 2WM     -0.078400
     16 CAQ        17.0550   -1.5290   10.5160 c3        1 2WM     -0.078400
     17 CAP        17.9010   -1.3590   11.7580 c3        1 2WM     -0.104400
     18 CAO        19.3050   -1.9170   11.5230 c3        1 2WM      0.338900
     19 OAD        20.1050   -1.1040   10.7070 oh        1 2WM     -0.631800
     20 OAN        19.9340   -1.9520   12.7980 os        1 2WM     -0.466600
     21 CAM        21.2280   -2.5540   12.8250 c3        1 2WM      0.093100
     22 CAL        22.2880   -1.5090   12.4580 c3        1 2WM      0.116400
     23 OAK        21.8690   -0.2030   12.7960 oh        1 2WM     -0.606800
     24 CBI        21.4180   -3.0740   14.2570 c3        1 2WM      0.130400
     25 OBJ        21.4420   -1.9650   15.1470 os        1 2WM     -0.472600
     26 CBK        20.4450   -1.9750   16.1640 c3        1 2WM      0.337900
     27 OCC        19.2110   -2.1810   15.5320 oh        1 2WM     -0.624800
     28 CBL        20.5560   -0.6290   16.8800 c3        1 2WM     -0.104400
     29 CBM        19.6410   -0.5970   18.0820 c3        1 2WM     -0.078400
     30 CBN        19.6680    0.7610   18.7520 c3        1 2WM     -0.078400
     31 CBO        18.7630    0.7910   19.9640 c3        1 2WM     -0.079400
     32 CBP        18.7870    2.1490   20.6320 c3        1 2WM     -0.077400
     33 CBQ        17.8810    2.1770   21.8460 c3        1 2WM     -0.049200
     34 CBR        17.8850    3.4960   22.5200 c2        1 2WM     -0.174200
     35 CBS        17.1710    3.7720   23.6170 c2        1 2WM     -0.173200
     36 CBT        16.2890    2.7910   24.2920 c3        1 2WM     -0.049200
     37 CBU        15.6020    3.3770   25.5080 c3        1 2WM     -0.077400
     38 CBV        14.7090    2.3540   26.1770 c3        1 2WM     -0.079400
     39 CBW        14.0210    2.9370   27.3920 c3        1 2WM     -0.079400
     40 CBX        13.1280    1.9150   28.0620 c3        1 2WM     -0.079400
     41 CBY        12.4400    2.4980   29.2770 c3        1 2WM     -0.079400
     42 CBZ        11.5460    1.4760   29.9470 c3        1 2WM     -0.079400
     43 CCA        10.8580    2.0580   31.1630 c3        1 2WM     -0.080400
     44 CCB         9.9670    1.0440   31.8330 c3        1 2WM     -0.092100
     45 H1         -0.4610    2.0760    2.3700 hc        1 2WM      0.032700
     46 H2          0.2430    3.3170    3.4860 hc        1 2WM      0.032700
     47 H3         -0.3870    1.7560    4.1520 hc        1 2WM      0.032700
     48 H4          2.0300    2.0580    2.2350 hc        1 2WM      0.038700
     49 H5          1.4010    0.5020    2.8990 hc        1 2WM      0.038700
     50 H6          1.8550    1.3160    5.2380 hc        1 2WM      0.039700
     51 H7          2.4840    2.8720    4.5740 hc        1 2WM      0.039700
     52 H8          4.2490    1.6120    3.2920 hc        1 2WM      0.039700
     53 H9          3.6200    0.0560    3.9550 hc        1 2WM      0.039700
     54 H10         4.7050    2.4260    5.6320 hc        1 2WM      0.039700
     55 H11         4.0750    0.8690    6.2950 hc        1 2WM      0.039700
     56 H12         6.4690    1.1660    4.3490 hc        1 2WM      0.039700
     57 H13         5.8400   -0.3910    5.0130 hc        1 2WM      0.039700
     58 H14         6.9250    1.9790    6.6890 hc        1 2WM      0.039700
     59 H15         6.2950    0.4220    7.3530 hc        1 2WM      0.039700
     60 H16         8.0590   -0.8380    6.0700 hc        1 2WM      0.039700
     61 H17         8.6890    0.7190    5.4070 hc        1 2WM      0.039700
     62 H18         8.5150   -0.0240    8.4100 hc        1 2WM      0.039700
     63 H19         9.1450    1.5320    7.7470 hc        1 2WM      0.039700
     64 H20        10.9090    0.2720    6.4640 hc        1 2WM      0.039700
     65 H21        10.2790   -1.2840    7.1280 hc        1 2WM      0.039700
     66 H22        11.3640    1.0850    8.8040 hc        1 2WM      0.039700
     67 H23        10.7350   -0.4710    9.4680 hc        1 2WM      0.039700
     68 H24        13.1280   -0.1750    7.5220 hc        1 2WM      0.039700
     69 H25        12.4990   -1.7320    8.1850 hc        1 2WM      0.039700
     70 H26        12.9550   -0.9180   10.5250 hc        1 2WM      0.039700
     71 H27        13.5840    0.6380    9.8620 hc        1 2WM      0.039700
     72 H28        14.7190   -2.1780    9.2410 hc        1 2WM      0.040700
     73 H29        15.3490   -0.6220    8.5790 hc        1 2WM      0.040700
     74 H30        15.1760   -1.3690   11.5820 hc        1 2WM      0.040700
     75 H31        15.8010    0.1900   10.9210 hc        1 2WM      0.040700
     76 H32        17.5780   -1.0540    9.6440 hc        1 2WM      0.048200
     77 H33        16.9410   -2.6200   10.2820 hc        1 2WM      0.048200
     78 H34        17.9780   -0.2750   12.0300 hc        1 2WM      0.058700
     79 H35        17.4410   -1.8970   12.6260 hc        1 2WM      0.058700
     80 H36        19.2900   -2.9290   11.0300 h2        1 2WM      0.070700
     81 H37        20.2920   -0.2820   11.1870 ho        1 2WM      0.435000
     82 H38        21.2760   -3.4190   12.1100 h1        1 2WM      0.055700
     83 H39        23.2530   -1.7500   12.9780 h1        1 2WM      0.054200
     84 H40        22.4440   -1.4780   11.3460 h1        1 2WM      0.054200
     85 H41        21.5560   -0.2340   13.7110 ho        1 2WM      0.419000
     86 H42        20.6000   -3.7950   14.5150 h1        1 2WM      0.059700
     87 H43        22.4220   -3.5690   14.3420 h1        1 2WM      0.059700
     88 H44        20.5800   -2.8480   16.8620 h2        1 2WM      0.071700
     89 H45        19.1230   -1.5380   14.8140 ho        1 2WM      0.430000
     90 H46        20.2890    0.1900   16.1630 hc        1 2WM      0.058200
     91 H47        21.6210   -0.4750   17.1910 hc        1 2WM      0.058200
     92 H48        18.5940   -0.8420   17.7580 hc        1 2WM      0.048200
     93 H49        19.9530   -1.3850   18.8170 hc        1 2WM      0.048200
     94 H50        19.3440    1.5480   18.0210 hc        1 2WM      0.041200
     95 H51        20.7190    1.0080   19.0590 hc        1 2WM      0.041200
     96 H52        17.7130    0.5410   19.6560 hc        1 2WM      0.040700
     97 H53        19.0880    0.0060   20.6970 hc        1 2WM      0.040700
     98 H54        19.8360    2.3990   20.9400 hc        1 2WM      0.041700
     99 H55        18.4590    2.9340   19.9000 hc        1 2WM      0.041700
    100 H56        18.2050    1.3840   22.5750 hc        1 2WM      0.047700
    101 H57        16.8300    1.9190   21.5370 hc        1 2WM      0.047700
    102 H58        18.5230    4.2700   22.0640 ha        1 2WM      0.122000
    103 H59        17.2160    4.7740   24.0730 ha        1 2WM      0.122000
    104 H60        16.8950    1.8930   24.5990 hc        1 2WM      0.047700
    105 H61        15.5150    2.4210   23.5640 hc        1 2WM      0.047700
    106 H62        14.9910    4.2670   25.2030 hc        1 2WM      0.041700
    107 H63        16.3720    3.7390   26.2380 hc        1 2WM      0.041700
    108 H64        15.3190    1.4630   26.4820 hc        1 2WM      0.039700
    109 H65        13.9380    1.9920   25.4460 hc        1 2WM      0.039700
    110 H66        13.4100    3.8280   27.0880 hc        1 2WM      0.039700
    111 H67        14.7910    3.2990   28.1230 hc        1 2WM      0.039700
    112 H68        13.7380    1.0240   28.3670 hc        1 2WM      0.039700
    113 H69        12.3570    1.5530   27.3310 hc        1 2WM      0.039700
    114 H70        11.8290    3.3890   28.9730 hc        1 2WM      0.039700
    115 H71        13.2100    2.8600   30.0080 hc        1 2WM      0.039700
    116 H72        12.1570    0.5850   30.2520 hc        1 2WM      0.039700
    117 H73        10.7760    1.1140   29.2170 hc        1 2WM      0.039700
    118 H74        11.6300    2.4210   31.8920 hc        1 2WM      0.038700
    119 H75        10.2490    2.9500   30.8570 hc        1 2WM      0.038700
    120 H76         9.4700    1.4930   32.7260 hc        1 2WM      0.032700
    121 H77        10.5600    0.1580   32.1680 hc        1 2WM      0.032700
    122 H78         9.1750    0.6890   31.1300 hc        1 2WM      0.032700
@<TRIPOS>BOND
     1    1    2 1   
     2    1   45 1   
     3    1   46 1   
     4    1   47 1   
     5    2    3 1   
     6    2   48 1   
     7    2   49 1   
     8    3    4 1   
     9    3   50 1   
    10    3   51 1   
    11    4    5 1   
    12    4   52 1   
    13    4   53 1   
    14    5    6 1   
    15    5   54 1   
    16    5   55 1   
    17    6    7 1   
    18    6   56 1   
    19    6   57 1   
    20    7    8 1   
    21    7   58 1   
    22    7   59 1   
    23    8    9 1   
    24    8   60 1   
    25    8   61 1   
    26    9   10 1   
    27    9   62 1   
    28    9   63 1   
    29   10   11 1   
    30   10   64 1   
    31   10   65 1   
    32   11   12 1   
    33   11   66 1   
    34   11   67 1   
    35   12   13 1   
    36   12   68 1   
    37   12   69 1   
    38   13   14 1   
    39   13   70 1   
    40   13   71 1   
    41   14   15 1   
    42   14   72 1   
    43   14   73 1   
    44   15   16 1   
    45   15   74 1   
    46   15   75 1   
    47   16   17 1   
    48   16   76 1   
    49   16   77 1   
    50   17   18 1   
    51   17   78 1   
    52   17   79 1   
    53   18   19 1   
    54   18   20 1   
    55   18   80 1   
    56   19   81 1   
    57   20   21 1   
    58   21   22 1   
    59   21   24 1   
    60   21   82 1   
    61   22   23 1   
    62   22   83 1   
    63   22   84 1   
    64   23   85 1   
    65   24   25 1   
    66   24   86 1   
    67   24   87 1   
    68   25   26 1   
    69   26   27 1   
    70   26   28 1   
    71   26   88 1   
    72   27   89 1   
    73   28   29 1   
    74   28   90 1   
    75   28   91 1   
    76   29   30 1   
    77   29   92 1   
    78   29   93 1   
    79   30   31 1   
    80   30   94 1   
    81   30   95 1   
    82   31   32 1   
    83   31   96 1   
    84   31   97 1   
    85   32   33 1   
    86   32   98 1   
    87   32   99 1   
    88   33   34 1   
    89   33  100 1   
    90   33  101 1   
    91   34   35 2   
    92   34  102 1   
    93   35   36 1   
    94   35  103 1   
    95   36   37 1   
    96   36  104 1   
    97   36  105 1   
    98   37   38 1   
    99   37  106 1   
   100   37  107 1   
   101   38   39 1   
   102   38  108 1   
   103   38  109 1   
   104   39   40 1   
   105   39  110 1   
   106   39  111 1   
   107   40   41 1   
   108   40  112 1   
   109   40  113 1   
   110   41   42 1   
   111   41  114 1   
   112   41  115 1   
   113   42   43 1   
   114   42  116 1   
   115   42  117 1   
   116   43   44 1   
   117   43  118 1   
   118   43  119 1   
   119   44  120 1   
   120   44  121 1   
   121   44  122 1   
@<TRIPOS>SUBSTRUCTURE
     1 2WM         1 TEMP              0 ****  ****    0 ROOT
