@<TRIPOS>MOLECULE
2WN
   32    34     1     0     0
SMALL
bcc


@<TRIPOS>ATOM
      1 O1          0.0340    0.1980   -0.4560 oh        1 2WN     -0.468100
      2 C2          1.3830    0.1620   -0.2320 ca        1 2WN      0.169100
      3 C3          1.9550    0.1780    1.0560 ca        1 2WN     -0.048600
      4 C4          3.3400    0.1390    1.2200 ca        1 2WN     -0.047500
      5 C5          4.1690    0.0850    0.0920 ca        1 2WN     -0.159500
      6 C6          3.6110    0.0680   -1.1940 ca        1 2WN     -0.047500
      7 C7          2.2280    0.1060   -1.3630 ca        1 2WN     -0.048600
      8 Cl8         1.5990    0.0850   -2.9380 cl        1 2WN     -0.060900
      9 Cl9         0.9650    0.2440    2.4380 cl        1 2WN     -0.060900
     10 C10         5.6040    0.0450    0.2650 cc        1 2WN      0.520900
     11 O11         6.4190   -0.0080   -0.8820 os        1 2WN     -0.389800
     12 C12         7.7260   -0.0350   -0.3570 cc        1 2WN      0.517900
     13 N13         7.6560   -0.0010    0.9940 nd        1 2WN     -0.339000
     14 N14         6.3920    0.0470    1.3650 nd        1 2WN     -0.340000
     15 C15         8.8400   -0.0910   -1.2780 ca        1 2WN     -0.146500
     16 C16        10.1500   -0.1210   -0.7750 ca        1 2WN     -0.065500
     17 C17        11.2310   -0.1770   -1.6490 ca        1 2WN     -0.157500
     18 C18        10.9900   -0.2040   -3.0320 ca        1 2WN      0.184100
     19 C19         9.6850   -0.1720   -3.5480 ca        1 2WN     -0.157500
     20 C20         8.6140   -0.1140   -2.6630 ca        1 2WN     -0.065500
     21 O21        12.0440   -0.1690   -3.9060 os        1 2WN     -0.521800
     22 S22        13.0460   -1.4330   -4.3230 s6        1 2WN      1.914200
     23 O23        12.3540   -2.5940   -4.1840 o         1 2WN     -0.658300
     24 O25        13.6910   -1.0220   -5.4440 o         1 2WN     -0.658300
     25 F26        13.9910   -1.3080   -3.1510 f         1 2WN     -0.284900
     26 H1         -0.4220    0.2340    0.4020 ho        1 2WN      0.440000
     27 H2          3.7770    0.1520    2.2340 ha        1 2WN      0.172500
     28 H3          4.2740    0.0250   -2.0750 ha        1 2WN      0.172500
     29 H4         10.3290   -0.0990    0.3130 ha        1 2WN      0.160500
     30 H5         12.2620   -0.1920   -1.2670 ha        1 2WN      0.156500
     31 H6          9.5200   -0.1800   -4.6350 ha        1 2WN      0.156500
     32 H7          7.5820   -0.0860   -3.0490 ha        1 2WN      0.160500
@<TRIPOS>BOND
     1    1    2 1   
     2    1   26 1   
     3    2    3 ar  
     4    2    7 ar  
     5    3    4 ar  
     6    3    9 1   
     7    4    5 ar  
     8    4   27 1   
     9    5    6 ar  
    10    5   10 1   
    11    6    7 ar  
    12    6   28 1   
    13    7    8 1   
    14   10   11 1   
    15   10   14 2   
    16   11   12 1   
    17   12   13 2   
    18   12   15 1   
    19   13   14 1   
    20   15   16 ar  
    21   15   20 ar  
    22   16   17 ar  
    23   16   29 1   
    24   17   18 ar  
    25   17   30 1   
    26   18   19 ar  
    27   18   21 1   
    28   19   20 ar  
    29   19   31 1   
    30   20   32 1   
    31   21   22 1   
    32   22   23 2   
    33   22   24 2   
    34   22   25 1   
@<TRIPOS>SUBSTRUCTURE
     1 2WN         1 TEMP              0 ****  ****    0 ROOT
