@<TRIPOS>MOLECULE
2WP
   34    34     1     0     0
SMALL
bcc


@<TRIPOS>ATOM
      1 C1         -0.0180    0.4170    0.9730 c3        1 2WP      0.303900
      2 O1         -0.7120   -0.5180    0.1850 oh        1 2WP     -0.624800
      3 C2          1.4840    0.3530    0.6140 c3        1 2WP      0.097100
      4 O2          1.7560   -0.3010   -0.5980 oh        1 2WP     -0.580800
      5 C3          2.1370   -0.3890    1.8070 c3        1 2WP      0.084100
      6 O3          2.7100   -1.6190    1.4160 oh        1 2WP     -0.591800
      7 C4          0.9880   -0.7070    2.7900 c3        1 2WP      0.139100
      8 O4         -0.1860   -0.0200    2.3140 os        1 2WP     -0.460600
      9 CE          1.2920   -0.2250    4.1930 c3        1 2WP      0.008700
     10 N          -0.6890   -0.8700    8.2430 n4        1 2WP     -0.826600
     11 CA         -1.8910   -0.1870    7.6770 c3        1 2WP     -0.075500
     12 CB         -2.2500   -0.6740    6.2870 c3        1 2WP     -0.087400
     13 CG         -1.3150   -0.1840    5.2160 c3        1 2WP      0.002700
     14 SD          0.2730   -0.9680    5.4360 ss        1 2WP     -0.401200
     15 C          -3.1210   -0.3810    8.6960 c         1 2WP      0.937600
     16 O          -4.2420   -0.1250    8.2280 o         1 2WP     -0.762800
     17 OXT        -2.7790   -0.7430    9.8500 o         1 2WP     -0.762800
     18 H1         -0.4700    1.4410    0.8930 h2        1 2WP      0.083700
     19 H2         -1.5290   -0.7470    0.6490 ho        1 2WP      0.437000
     20 H3          1.9070    1.3860    0.4920 h1        1 2WP      0.094700
     21 H4          1.2080   -1.1000   -0.6400 ho        1 2WP      0.437000
     22 H5          2.9240    0.2530    2.2860 h1        1 2WP      0.055700
     23 H6          3.2160   -1.4540    0.6060 ho        1 2WP      0.427000
     24 H7          0.7600   -1.8090    2.7820 h1        1 2WP      0.101700
     25 H8          2.3340   -0.5310    4.4660 h1        1 2WP      0.086200
     26 H9          1.2090    0.8870    4.2440 h1        1 2WP      0.086200
     27 H13        -1.6720    0.9170    7.6610 hx        1 2WP      0.086700
     28 H14        -2.3260   -1.7940    6.2600 hc        1 2WP      0.099200
     29 H15        -3.2900   -0.2790    6.0840 hc        1 2WP      0.099200
     30 H16        -1.7090   -0.4390    4.2000 h1        1 2WP      0.080200
     31 H17        -1.1910    0.9240    5.2640 h1        1 2WP      0.080200
     32 H11         0.1750   -0.4980    7.8430 hn        1 2WP      0.447800
     33 H21        -0.7470   -1.8690    8.0440 hn        1 2WP      0.447800
     34 H10        -0.7390   -0.7420    9.2710 hn        1 2WP      0.447800
@<TRIPOS>BOND
     1    1    2 1   
     2    1    3 1   
     3    1    8 1   
     4    1   18 1   
     5    2   19 1   
     6    3    4 1   
     7    3    5 1   
     8    3   20 1   
     9    4   21 1   
    10    5    6 1   
    11    5    7 1   
    12    5   22 1   
    13    6   23 1   
    14    7    8 1   
    15    7    9 1   
    16    7   24 1   
    17    9   14 1   
    18    9   25 1   
    19    9   26 1   
    20   10   11 1   
    21   10   32 1   
    22   10   33 1   
    23   10   34 1   
    24   11   12 1   
    25   11   15 1   
    26   11   27 1   
    27   12   13 1   
    28   12   28 1   
    29   12   29 1   
    30   13   14 1   
    31   13   30 1   
    32   13   31 1   
    33   15   16 1   
    34   15   17 1   
@<TRIPOS>SUBSTRUCTURE
     1 2WP         1 TEMP              0 ****  ****    0 ROOT
