@<TRIPOS>MOLECULE
2WP
   34    34     1     0     0
SMALL
bcc


@<TRIPOS>ATOM
      1 C1          0.1240    0.5370    1.0640 c3        1 2WP      0.301900
      2 O1         -0.7230   -0.2230    0.2380 oh        1 2WP     -0.628800
      3 C2          1.5930    0.2870    0.6510 c3        1 2WP      0.098100
      4 O2          1.7490   -0.5050   -0.5000 oh        1 2WP     -0.580800
      5 C3          2.2270   -0.3970    1.8900 c3        1 2WP      0.091100
      6 O3          3.0280   -1.5120    1.5980 oh        1 2WP     -0.576800
      7 C4          1.0300   -0.7830    2.7920 c3        1 2WP      0.107100
      8 O4         -0.0860    0.0260    2.3750 os        1 2WP     -0.460600
      9 CE          1.3060   -0.5060    4.2540 c3        1 2WP     -0.003300
     10 N          -0.6850   -0.3670    8.1860 nz        1 2WP     -0.843600
     11 CA         -1.9840   -0.0210    7.5360 c3        1 2WP     -0.076500
     12 CB         -2.2570   -0.8260    6.2770 c3        1 2WP     -0.085400
     13 CG         -1.3530   -0.4880    5.1240 c3        1 2WP     -0.007300
     14 SD          0.1990   -1.3330    5.3590 ss        1 2WP     -0.358200
     15 C          -3.1820   -0.3000    8.5750 c         1 2WP      0.936600
     16 O          -4.2840    0.1530    8.2260 o         1 2WP     -0.759800
     17 OXT        -2.8450   -0.9390    9.6040 o         1 2WP     -0.759800
     18 H1         -0.1710    1.6200    1.0680 h2        1 2WP      0.084700
     19 H2         -1.5470   -0.3760    0.7200 ho        1 2WP      0.441000
     20 H3          2.1150    1.2530    0.4170 h1        1 2WP      0.098700
     21 H4          0.9910   -1.1030   -0.5790 ho        1 2WP      0.432000
     22 H5          2.9080    0.3210    2.4250 h1        1 2WP      0.085700
     23 H6          2.7040   -1.9220    0.7830 ho        1 2WP      0.422000
     24 H7          0.7500   -1.8610    2.6370 h1        1 2WP      0.085700
     25 H8          1.2920    0.5950    4.4410 h1        1 2WP      0.087700
     26 H9          2.3190   -0.9120    4.5090 h1        1 2WP      0.087700
     27 H13        -1.9790    1.0780    7.3030 hx        1 2WP      0.085700
     28 H14        -3.3250   -0.5900    5.9950 hc        1 2WP      0.097700
     29 H15        -2.2160   -1.9270    6.4960 hc        1 2WP      0.097700
     30 H16        -1.8030   -0.8230    4.1570 h1        1 2WP      0.078700
     31 H17        -1.1780    0.6120    5.0440 h1        1 2WP      0.078700
     32 H11        -0.0070   -0.7350    7.5020 hn        1 2WP      0.448133
     33 H21        -0.3070    0.4520    8.6550 hn        1 2WP      0.448133
     34 H10        -0.9060   -1.0800    8.9110 hn        1 2WP      0.448133
@<TRIPOS>BOND
     1    1    2 1   
     2    1    3 1   
     3    1    8 1   
     4    1   18 1   
     5    2   19 1   
     6    3    4 1   
     7    3    5 1   
     8    3   20 1   
     9    4   21 1   
    10    5    6 1   
    11    5    7 1   
    12    5   22 1   
    13    6   23 1   
    14    7    8 1   
    15    7    9 1   
    16    7   24 1   
    17    9   14 1   
    18    9   25 1   
    19    9   26 1   
    20   10   11 1   
    21   10   32 1   
    22   10   33 1   
    23   10   34 1   
    24   11   12 1   
    25   11   15 1   
    26   11   27 1   
    27   12   13 1   
    28   12   28 1   
    29   12   29 1   
    30   13   14 1   
    31   13   30 1   
    32   13   31 1   
    33   15   16 1   
    34   15   17 1   
@<TRIPOS>SUBSTRUCTURE
     1 2WP         1 TEMP              0 ****  ****    0 ROOT
