@<TRIPOS>MOLECULE
2WP
   34    34     1     0     0
SMALL
bcc


@<TRIPOS>ATOM
      1 C1          1.0070   -0.0410    0.6390 c3        1 2WP      0.303900
      2 O1          1.4920   -1.2600    0.1320 oh        1 2WP     -0.630800
      3 C2          1.8040    0.3220    1.9120 c3        1 2WP      0.100100
      4 O2          2.9950   -0.4030    2.0800 oh        1 2WP     -0.582800
      5 C3          0.8190    0.0480    3.0790 c3        1 2WP      0.083100
      6 O3          1.2870   -0.9630    3.9540 oh        1 2WP     -0.638800
      7 C4         -0.4860   -0.4530    2.4230 c3        1 2WP      0.139100
      8 O4         -0.3420   -0.2950    0.9990 os        1 2WP     -0.445600
      9 CE         -1.7240    0.3210    2.8340 c3        1 2WP     -0.030300
     10 N          -0.3660   -1.7960    6.1440 n4        1 2WP     -0.839600
     11 CA         -0.6010   -0.6740    7.0960 c3        1 2WP     -0.073500
     12 CB         -1.9260    0.0360    6.8790 c3        1 2WP     -0.084400
     13 CG         -2.0090    0.7940    5.5810 c3        1 2WP     -0.017300
     14 SD         -2.4630   -0.3500    4.2920 ss        1 2WP     -0.320200
     15 C          -0.5780   -1.2340    8.6040 c         1 2WP      0.936600
     16 O          -0.5830   -0.3540    9.4820 o         1 2WP     -0.762300
     17 OXT        -0.5560   -2.4860    8.7030 o         1 2WP     -0.762300
     18 H1          1.0060    0.7610   -0.1460 h2        1 2WP      0.089700
     19 H2          0.7900   -1.6560   -0.4040 ho        1 2WP      0.442000
     20 H3          2.1140    1.4010    1.8930 h1        1 2WP      0.099700
     21 H4          2.8560   -1.3080    1.7630 ho        1 2WP      0.439000
     22 H5          0.6500    0.9840    3.6770 h1        1 2WP      0.061700
     23 H6          2.2520   -0.8800    4.0100 ho        1 2WP      0.442000
     24 H7         -0.6220   -1.5530    2.6220 h1        1 2WP      0.082700
     25 H8         -2.4900    0.2220    2.0210 h1        1 2WP      0.095700
     26 H9         -1.4980    1.4070    2.9550 h1        1 2WP      0.095700
     27 H13         0.2490    0.0550    6.9940 hx        1 2WP      0.082700
     28 H14        -2.7800   -0.6900    6.9610 hc        1 2WP      0.097700
     29 H15        -2.0290    0.7560    7.7430 hc        1 2WP      0.097700
     30 H16        -2.7980    1.5830    5.6480 h1        1 2WP      0.073200
     31 H17        -1.0410    1.2950    5.3400 h1        1 2WP      0.073200
     32 H11        -0.5960   -2.6720    6.6550 hn        1 2WP      0.450133
     33 H21         0.6160   -1.8230    5.8730 hn        1 2WP      0.450133
     34 H10        -0.9500   -1.6980    5.2990 hn        1 2WP      0.450133
@<TRIPOS>BOND
     1    1    2 1   
     2    1    3 1   
     3    1    8 1   
     4    1   18 1   
     5    2   19 1   
     6    3    4 1   
     7    3    5 1   
     8    3   20 1   
     9    4   21 1   
    10    5    6 1   
    11    5    7 1   
    12    5   22 1   
    13    6   23 1   
    14    7    8 1   
    15    7    9 1   
    16    7   24 1   
    17    9   14 1   
    18    9   25 1   
    19    9   26 1   
    20   10   11 1   
    21   10   32 1   
    22   10   33 1   
    23   10   34 1   
    24   11   12 1   
    25   11   15 1   
    26   11   27 1   
    27   12   13 1   
    28   12   28 1   
    29   12   29 1   
    30   13   14 1   
    31   13   30 1   
    32   13   31 1   
    33   15   16 1   
    34   15   17 1   
@<TRIPOS>SUBSTRUCTURE
     1 2WP         1 TEMP              0 ****  ****    0 ROOT
