@<TRIPOS>MOLECULE
2WQ
   28    27     1     0     0
SMALL
bcc


@<TRIPOS>ATOM
      1 O1         -0.1190    0.7230   -0.0460 os        1 2WQ     -0.331900
      2 C2          1.3000    0.8860    0.0610 c3        1 2WQ      0.027400
      3 C3          1.6630    0.6780    1.5130 c         1 2WQ      0.631100
      4 O4          2.7390    1.0220    2.0020 o         1 2WQ     -0.490000
      5 O6          0.8100    0.0670    2.3680 oh        1 2WQ     -0.564100
      6 C9         -0.5900    0.2780   -1.2620 ca        1 2WQ      0.201100
      7 C10        -1.8430   -0.3740   -1.2330 ca        1 2WQ     -0.203600
      8 C11        -2.5080   -0.6200    0.0680 c         1 2WQ      0.631700
      9 O12        -1.8920   -0.9670    1.0860 o         1 2WQ     -0.536100
     10 N13        -3.9290   -0.4380    0.1290 ns        1 2WQ     -0.375500
     11 C15        -4.7110   -0.6450    1.1580 c1        1 2WQ     -0.059500
     12 C17        -8.9290    0.1070   -0.1770 c1        1 2WQ     -0.179500
     13 C18        -7.8490   -0.0970    0.2950 c1        1 2WQ     -0.179500
     14 C21        -2.4100   -0.7970   -2.4390 ca        1 2WQ     -0.044000
     15 C23        -1.7600   -0.5900   -3.6490 ca        1 2WQ     -0.197000
     16 C25        -0.5130    0.0670   -3.6640 ca        1 2WQ      0.196900
     17 F26         0.1210    0.2780   -4.8380 f         1 2WQ     -0.120900
     18 C27         0.0790    0.5090   -2.4680 ca        1 2WQ     -0.243000
     19 H1          1.8510    0.1360   -0.5650 h1        1 2WQ      0.088700
     20 H2          1.5650    1.9300   -0.2550 h1        1 2WQ      0.088700
     21 H4         -4.3460   -0.0980   -0.7160 hn        1 2WQ      0.333500
     22 H5         -4.2420   -1.0090    2.0950 ha        1 2WQ      0.025500
     23 H6         -9.8880    0.2880   -0.5920 ha        1 2WQ      0.174500
     24 H7         -6.8830   -0.2810    0.7200 ha        1 2WQ      0.174500
     25 H8         -3.3780   -1.3250   -2.4400 ha        1 2WQ      0.152000
     26 H9         -2.2050   -0.9330   -4.5950 ha        1 2WQ      0.165000
     27 H10         1.0460    1.0320   -2.4960 ha        1 2WQ      0.168000
     28 H132       -0.0180   -0.1840    1.9200 ho        1 2WQ      0.465000
@<TRIPOS>BOND
     1    1    2 1   
     2    1    6 1   
     3    2    3 1   
     4    2   19 1   
     5    2   20 1   
     6    3    4 2   
     7    3    5 1   
     8    5   28 1   
     9    6    7 ar  
    10    6   18 ar  
    11    7    8 1   
    12    7   14 ar  
    13    8    9 2   
    14    8   10 1   
    15   10   11 3   
    16   10   21 1   
    17   11   22 1   
    18   12   13 3   
    19   12   23 1   
    20   13   24 1   
    21   14   15 ar  
    22   14   25 1   
    23   15   16 ar  
    24   15   26 1   
    25   16   17 1   
    26   16   18 ar  
    27   18   27 1   
@<TRIPOS>SUBSTRUCTURE
     1 2WQ         1 TEMP              0 ****  ****    0 ROOT
