@<TRIPOS>MOLECULE
2WQ
   28    28     1     0     0
SMALL
bcc


@<TRIPOS>ATOM
      1 O1         -0.8010    0.6430   -0.3440 os        1 2WQ     -0.355900
      2 C2          0.5750    0.9240   -0.0620 c3        1 2WQ      0.031400
      3 C3          0.7420    0.8710    1.4370 c         1 2WQ      0.629100
      4 O4          1.7360    1.2820    2.0350 o         1 2WQ     -0.483000
      5 O6         -0.2220    0.3390    2.2310 oh        1 2WQ     -0.567100
      6 C9         -1.0710    0.1580   -1.6120 ca        1 2WQ      0.173100
      7 C10        -2.2290   -0.6260   -1.7700 ca        1 2WQ     -0.179600
      8 C11        -3.1510   -1.0270   -0.6660 c         1 2WQ      0.676700
      9 O12        -3.6710   -2.1620   -0.6600 o         1 2WQ     -0.595100
     10 N13        -3.3940   -0.1190    0.3500 n         1 2WQ     -0.554900
     11 C15        -4.4470   -0.3260    1.3120 c3        1 2WQ      0.162100
     12 C17        -5.6160    0.5060    1.1230 c1        1 2WQ     -0.182100
     13 C18        -6.5960    1.1780    0.9920 c1        1 2WQ     -0.124500
     14 C21        -2.5450   -1.1010   -3.0510 ca        1 2WQ     -0.029000
     15 C23        -1.7520   -0.8020   -4.1510 ca        1 2WQ     -0.195000
     16 C25        -0.6030   -0.0080   -3.9780 ca        1 2WQ      0.182900
     17 F26         0.1770    0.2950   -5.0400 f         1 2WQ     -0.126900
     18 C27        -0.2550    0.4740   -2.7040 ca        1 2WQ     -0.243000
     19 H1          0.8190    1.9540   -0.4340 h1        1 2WQ      0.089700
     20 H2          1.2520    0.1670   -0.5380 h1        1 2WQ      0.089700
     21 H4         -0.9710    0.0240    1.7000 ho        1 2WQ      0.451000
     22 H5         -4.0170   -0.1100    2.3380 h1        1 2WQ      0.085700
     23 H6         -4.7610   -1.4140    1.2830 h1        1 2WQ      0.085700
     24 H7         -7.4690    1.7710    0.8810 ha        1 2WQ      0.167500
     25 H8         -3.4380   -1.7400   -3.1700 ha        1 2WQ      0.170000
     26 H9         -2.0100   -1.1800   -5.1510 ha        1 2WQ      0.163000
     27 H10         0.6440    1.0960   -2.5870 ha        1 2WQ      0.161000
     28 H132       -3.0710    0.8140    0.2300 hn        1 2WQ      0.317500
@<TRIPOS>BOND
     1    1    2 1   
     2    1    6 1   
     3    2    3 1   
     4    2   19 1   
     5    2   20 1   
     6    3    4 2   
     7    3    5 1   
     8    5   21 1   
     9    6    7 ar  
    10    6   18 ar  
    11    7    8 1   
    12    7   14 ar  
    13    8    9 2   
    14    8   10 1   
    15   10   11 1   
    16   10   28 1   
    17   11   12 1   
    18   11   22 1   
    19   11   23 1   
    20   12   13 3   
    21   13   24 1   
    22   14   15 ar  
    23   14   25 1   
    24   15   16 ar  
    25   15   26 1   
    26   16   17 1   
    27   16   18 ar  
    28   18   27 1   
@<TRIPOS>SUBSTRUCTURE
     1 2WQ         1 TEMP              0 ****  ****    0 ROOT
