@<TRIPOS>MOLECULE
2WR
   23    23     1     0     0
SMALL
bcc


@<TRIPOS>ATOM
      1 C1          0.3040   -0.1050    0.2830 ca        1 2WR      0.171100
      2 C2          1.5920    0.4630    0.2960 ca        1 2WR     -0.175600
      3 C3          2.4520    0.6390   -0.9100 c         1 2WR      0.678700
      4 N4          2.4740   -0.3440   -1.8640 n         1 2WR     -0.668000
      5 O7          3.1730    1.6520   -1.0400 o         1 2WR     -0.608100
      6 C8          2.1080    0.9240    1.5140 ca        1 2WR     -0.028000
      7 C10         1.3830    0.8180    2.6950 ca        1 2WR     -0.195000
      8 C12         0.1010    0.2380    2.6660 ca        1 2WR      0.181900
      9 F13        -0.6150    0.1230    3.8070 f         1 2WR     -0.126900
     10 C14        -0.4480   -0.2240    1.4570 ca        1 2WR     -0.244000
     11 O16        -0.1640   -0.5730   -0.9330 os        1 2WR     -0.360900
     12 C17        -1.5860   -0.6620   -1.0650 c3        1 2WR      0.032400
     13 C18        -1.8930   -0.6690   -2.5430 c         1 2WR      0.629100
     14 O19        -2.9740   -0.9990   -3.0260 o         1 2WR     -0.480000
     15 O21        -0.9560   -0.2850   -3.4500 oh        1 2WR     -0.566100
     16 H1          3.0700   -0.2470   -2.6480 hn        1 2WR      0.320000
     17 H2         -0.1370   -0.0180   -3.0050 ho        1 2WR      0.446000
     18 H3          3.1070    1.3950    1.5190 ha        1 2WR      0.171000
     19 H4          1.7960    1.1830    3.6460 ha        1 2WR      0.162000
     20 H5         -1.4490   -0.6770    1.4560 ha        1 2WR      0.161000
     21 H6         -1.9380   -1.6220   -0.6010 h1        1 2WR      0.090200
     22 H7         -2.0960    0.2140   -0.5840 h1        1 2WR      0.090200
     23 H43         1.9090   -1.1510   -1.7810 hn        1 2WR      0.320000
@<TRIPOS>BOND
     1    1    2 ar  
     2    1   10 ar  
     3    1   11 1   
     4    2    3 1   
     5    2    6 ar  
     6    3    4 1   
     7    3    5 2   
     8    4   16 1   
     9    4   23 1   
    10    6    7 ar  
    11    6   18 1   
    12    7    8 ar  
    13    7   19 1   
    14    8    9 1   
    15    8   10 ar  
    16   10   20 1   
    17   11   12 1   
    18   12   13 1   
    19   12   21 1   
    20   12   22 1   
    21   13   14 2   
    22   13   15 1   
    23   15   17 1   
@<TRIPOS>SUBSTRUCTURE
     1 2WR         1 TEMP              0 ****  ****    0 ROOT
