@<TRIPOS>MOLECULE
2WR
   23    23     1     0     0
SMALL
bcc


@<TRIPOS>ATOM
      1 C1          0.3120   -0.1160    0.2820 ca        1 2WR      0.171100
      2 C2          1.5740    0.5070    0.2970 ca        1 2WR     -0.175600
      3 C3          2.4170    0.7410   -0.9100 c         1 2WR      0.678700
      4 N4          2.4770   -0.2250   -1.8810 nt        1 2WR     -0.668000
      5 O7          3.0930    1.7860   -1.0270 o         1 2WR     -0.608100
      6 C8          2.0760    0.9710    1.5200 ca        1 2WR     -0.028000
      7 C10         1.3640    0.8130    2.7030 ca        1 2WR     -0.195000
      8 C12         0.1080    0.1780    2.6710 ca        1 2WR      0.181900
      9 F13        -0.5950    0.0130    3.8140 f         1 2WR     -0.126900
     10 C14        -0.4270   -0.2880    1.4580 ca        1 2WR     -0.244000
     11 O16        -0.1420   -0.5850   -0.9400 os        1 2WR     -0.360900
     12 C17        -1.5600   -0.7350   -1.0650 c3        1 2WR      0.032400
     13 C18        -1.8750   -0.7310   -2.5420 c         1 2WR      0.629100
     14 O19        -2.9450   -1.1010   -3.0240 o         1 2WR     -0.480000
     15 O21        -0.9620   -0.2910   -3.4470 oh        1 2WR     -0.566100
     16 H1         -0.1530    0.0040   -3.0020 ho        1 2WR      0.446000
     17 H2          3.0630   -0.0890   -2.6660 hn        1 2WR      0.320000
     18 H3          3.0540    1.4850    1.5270 ha        1 2WR      0.171000
     19 H4          1.7670    1.1810    3.6570 ha        1 2WR      0.162000
     20 H5         -1.4070   -0.7850    1.4540 ha        1 2WR      0.161000
     21 H6         -1.8670   -1.7160   -0.6150 h1        1 2WR      0.090200
     22 H7         -2.1050    0.1100   -0.5670 h1        1 2WR      0.090200
     23 H43         1.9480   -1.0570   -1.8080 hn        1 2WR      0.320000
@<TRIPOS>BOND
     1    1    2 ar  
     2    1   10 ar  
     3    1   11 1   
     4    2    3 1   
     5    2    6 ar  
     6    3    4 1   
     7    3    5 2   
     8    4   17 1   
     9    4   23 1   
    10    6    7 ar  
    11    6   18 1   
    12    7    8 ar  
    13    7   19 1   
    14    8    9 1   
    15    8   10 ar  
    16   10   20 1   
    17   11   12 1   
    18   12   13 1   
    19   12   21 1   
    20   12   22 1   
    21   13   14 2   
    22   13   15 1   
    23   15   16 1   
@<TRIPOS>SUBSTRUCTURE
     1 2WR         1 TEMP              0 ****  ****    0 ROOT
