@<TRIPOS>MOLECULE
2WS
   54    56     1     0     0
SMALL
bcc


@<TRIPOS>ATOM
      1 C01         0.2300   -0.6390   -0.2080 c3        1 2WS      0.109400
      2 C02         1.7500   -0.7550   -0.0720 c3        1 2WS      0.070100
      3 C03         2.1810   -0.2310    1.3040 c3        1 2WS      0.109100
      4 C04         1.4200   -0.9720    2.4170 c3        1 2WS      0.129100
      5 C05        -0.0970   -0.9430    2.1380 c3        1 2WS      0.338900
      6 O06        -0.4220   -1.3720    0.8160 os        1 2WS     -0.451600
      7 O07        -0.6780   -1.9760    2.9040 os        1 2WS     -0.401600
      8 C08        -2.1030   -1.8980    3.0250 c3        1 2WS      0.077100
      9 C09        -2.4410   -1.5990    4.4870 c3        1 2WS      0.123400
     10 O10        -3.8450   -1.6250    4.6860 os        1 2WS     -0.428600
     11 C11        -4.4500   -2.8770    4.3830 c3        1 2WS      0.336900
     12 C12        -4.1610   -3.3510    2.9440 c3        1 2WS      0.128100
     13 C13        -2.6550   -3.2770    2.6390 c3        1 2WS      0.100100
     14 O14        -2.5240   -3.5240    1.2490 oh        1 2WS     -0.612800
     15 O15        -4.5950   -4.6980    2.8770 oh        1 2WS     -0.594800
     16 O16        -5.8250   -2.5570    4.4320 os        1 2WS     -0.387600
     17 C17        -6.3270   -2.3180    5.7510 c3        1 2WS      0.115100
     18 C18        -6.6650   -3.6710    6.3900 c3        1 2WS      0.107400
     19 O19        -7.3940   -3.5220    7.6000 os        1 2WS     -0.444600
     20 C20        -8.6290   -2.8440    7.4260 c3        1 2WS      0.307900
     21 C21        -8.3970   -1.4250    6.8760 c3        1 2WS      0.048100
     22 C22        -7.5960   -1.4680    5.5630 c3        1 2WS      0.153100
     23 O23        -7.1770   -0.1590    5.2240 oh        1 2WS     -0.580800
     24 O24        -9.6330   -0.8050    6.5670 oh        1 2WS     -0.600800
     25 O25        -9.1610   -2.8110    8.7230 oh        1 2WS     -0.597800
     26 O26         1.6070   -0.3030    3.6510 oh        1 2WS     -0.590800
     27 O27         3.5570   -0.4790    1.5380 oh        1 2WS     -0.603800
     28 O28         2.4090    0.0610   -1.0270 oh        1 2WS     -0.599800
     29 H1         -0.1300   -1.1130   -1.1590 h1        1 2WS      0.062700
     30 H2         -0.0820    0.4380   -0.1760 h1        1 2WS      0.062700
     31 H3          2.0730   -1.8270   -0.1890 h1        1 2WS      0.065700
     32 H4          1.9820    0.8760    1.3690 h1        1 2WS      0.065700
     33 H5          1.7780   -2.0360    2.4890 h1        1 2WS      0.079700
     34 H6         -0.5400    0.0680    2.3480 h2        1 2WS      0.068700
     35 H7         -2.5330   -1.1140    2.3460 h1        1 2WS      0.081700
     36 H8         -2.1390   -0.5550    4.7650 h1        1 2WS      0.065700
     37 H9         -1.9330   -2.3370    5.1620 h1        1 2WS      0.065700
     38 H10        -4.1560   -3.6520    5.1420 h2        1 2WS      0.054700
     39 H11        -4.7350   -2.7190    2.2120 h1        1 2WS      0.080700
     40 H12        -2.1040   -4.0780    3.2070 h1        1 2WS      0.063700
     41 H13        -1.6330   -3.2400    0.9960 ho        1 2WS      0.433000
     42 H14        -4.4190   -4.9920    1.9730 ho        1 2WS      0.424000
     43 H15        -5.5780   -1.7500    6.3640 h1        1 2WS      0.087700
     44 H16        -5.7300   -4.2090    6.7000 h1        1 2WS      0.066700
     45 H17        -7.2450   -4.3040    5.6670 h1        1 2WS      0.066700
     46 H18        -9.3490   -3.4270    6.7890 h2        1 2WS      0.086700
     47 H19        -7.8440   -0.8070    7.6380 h1        1 2WS      0.061700
     48 H20        -8.2300   -1.8970    4.7390 h1        1 2WS      0.066700
     49 H21        -7.9850    0.3510    5.0740 ho        1 2WS      0.416000
     50 H22       -10.1810   -0.8720    7.3620 ho        1 2WS      0.421000
     51 H23        -8.4320   -2.6770    9.3460 ho        1 2WS      0.427000
     52 H24         2.5570   -0.3360    3.8330 ho        1 2WS      0.426000
     53 H25         4.0380   -0.0670    0.8080 ho        1 2WS      0.427000
     54 H26         2.1960   -0.2970   -1.8970 ho        1 2WS      0.413000
@<TRIPOS>BOND
     1    1    2 1   
     2    1    6 1   
     3    1   29 1   
     4    1   30 1   
     5    2    3 1   
     6    2   28 1   
     7    2   31 1   
     8    3    4 1   
     9    3   27 1   
    10    3   32 1   
    11    4    5 1   
    12    4   26 1   
    13    4   33 1   
    14    5    6 1   
    15    5    7 1   
    16    5   34 1   
    17    7    8 1   
    18    8    9 1   
    19    8   13 1   
    20    8   35 1   
    21    9   10 1   
    22    9   36 1   
    23    9   37 1   
    24   10   11 1   
    25   11   12 1   
    26   11   16 1   
    27   11   38 1   
    28   12   13 1   
    29   12   15 1   
    30   12   39 1   
    31   13   14 1   
    32   13   40 1   
    33   14   41 1   
    34   15   42 1   
    35   16   17 1   
    36   17   18 1   
    37   17   22 1   
    38   17   43 1   
    39   18   19 1   
    40   18   44 1   
    41   18   45 1   
    42   19   20 1   
    43   20   21 1   
    44   20   25 1   
    45   20   46 1   
    46   21   22 1   
    47   21   24 1   
    48   21   47 1   
    49   22   23 1   
    50   22   48 1   
    51   23   49 1   
    52   24   50 1   
    53   25   51 1   
    54   26   52 1   
    55   27   53 1   
    56   28   54 1   
@<TRIPOS>SUBSTRUCTURE
     1 2WS         1 TEMP              0 ****  ****    0 ROOT
