@<TRIPOS>MOLECULE
2WS
   54    56     1     0     0
SMALL
bcc


@<TRIPOS>ATOM
      1 C01         0.2230   -0.6850   -0.2280 c3        1 2WS      0.109400
      2 C02         1.7440   -0.7770   -0.0860 c3        1 2WS      0.070100
      3 C03         2.1650   -0.2150    1.2790 c3        1 2WS      0.109100
      4 C04         1.4110   -0.9410    2.4060 c3        1 2WS      0.129100
      5 C05        -0.1050   -0.9390    2.1240 c3        1 2WS      0.338900
      6 O06        -0.4210   -1.4030    0.8120 os        1 2WS     -0.451600
      7 O07        -0.6730   -1.9620    2.9120 os        1 2WS     -0.401600
      8 C08        -2.1000   -1.9010    3.0290 c3        1 2WS      0.077100
      9 C09        -2.4460   -1.5730    4.4830 c3        1 2WS      0.123400
     10 O10        -3.8500   -1.6130    4.6790 os        1 2WS     -0.428600
     11 C11        -4.4370   -2.8810    4.4040 c3        1 2WS      0.336900
     12 C12        -4.1380   -3.3840    2.9770 c3        1 2WS      0.128100
     13 C13        -2.6320   -3.2960    2.6730 c3        1 2WS      0.100100
     14 O14        -2.4940   -3.5740    1.2900 oh        1 2WS     -0.612800
     15 O15        -4.5530   -4.7390    2.9400 oh        1 2WS     -0.594800
     16 O16        -5.8160   -2.5780    4.4420 os        1 2WS     -0.387600
     17 C17        -6.3260   -2.3160    5.7540 c3        1 2WS      0.115100
     18 C18        -6.6460   -3.6590    6.4240 c3        1 2WS      0.107400
     19 O19        -7.3800   -3.4920    7.6280 os        1 2WS     -0.444600
     20 C20        -8.6240   -2.8340    7.4360 c3        1 2WS      0.307900
     21 C21        -8.4100   -1.4250    6.8530 c3        1 2WS      0.048100
     22 C22        -7.6050   -1.4880    5.5430 c3        1 2WS      0.153100
     23 O23        -7.2030   -0.1810    5.1750 oh        1 2WS     -0.580800
     24 O24        -9.6540   -0.8300    6.5270 oh        1 2WS     -0.600800
     25 O25        -9.1600   -2.7790    8.7300 oh        1 2WS     -0.597800
     26 O26         1.5860   -0.2410    3.6250 oh        1 2WS     -0.590800
     27 O27         3.5430   -0.4380    1.5200 oh        1 2WS     -0.603800
     28 O28         2.3940    0.0260   -1.0580 oh        1 2WS     -0.599800
     29 H1         -0.1040    0.3880   -0.2210 h1        1 2WS      0.062700
     30 H2         -0.1290   -1.1860   -1.1690 h1        1 2WS      0.062700
     31 H3          2.0820   -1.8460   -0.1780 h1        1 2WS      0.065700
     32 H4          1.9500    0.8900    1.3170 h1        1 2WS      0.065700
     33 H5          1.7840   -1.9980    2.5030 h1        1 2WS      0.079700
     34 H6         -0.5630    0.0700    2.3100 h2        1 2WS      0.068700
     35 H7         -2.5390   -1.1390    2.3300 h1        1 2WS      0.081700
     36 H8         -2.1590   -0.5190    4.7370 h1        1 2WS      0.065700
     37 H9         -1.9300   -2.2880    5.1750 h1        1 2WS      0.065700
     38 H10        -4.1350   -3.6340    5.1810 h2        1 2WS      0.054700
     39 H11        -4.7190   -2.7770    2.2280 h1        1 2WS      0.080700
     40 H12        -2.0720   -4.0770    3.2620 h1        1 2WS      0.063700
     41 H13        -1.6070   -3.2830    1.0330 ho        1 2WS      0.433000
     42 H14        -4.3700   -5.0510    2.0430 ho        1 2WS      0.424000
     43 H15        -5.5850   -1.7240    6.3550 h1        1 2WS      0.087700
     44 H16        -7.2150   -4.3160    5.7140 h1        1 2WS      0.066700
     45 H17        -5.7050   -4.1760    6.7480 h1        1 2WS      0.066700
     46 H18        -9.3340   -3.4420    6.8100 h2        1 2WS      0.086700
     47 H19        -7.8680   -0.7820    7.6010 h1        1 2WS      0.061700
     48 H20        -8.2310   -1.9460    4.7280 h1        1 2WS      0.066700
     49 H21        -8.0180    0.3140    5.0110 ho        1 2WS      0.416000
     50 H22       -10.2030   -0.8860    7.3210 ho        1 2WS      0.421000
     51 H23        -8.4350   -2.6200    9.3510 ho        1 2WS      0.427000
     52 H24         2.5350   -0.2570    3.8100 ho        1 2WS      0.426000
     53 H25         4.0200   -0.0360    0.7820 ho        1 2WS      0.427000
     54 H26         2.1880   -0.3550   -1.9210 ho        1 2WS      0.413000
@<TRIPOS>BOND
     1    1    2 1   
     2    1    6 1   
     3    1   29 1   
     4    1   30 1   
     5    2    3 1   
     6    2   28 1   
     7    2   31 1   
     8    3    4 1   
     9    3   27 1   
    10    3   32 1   
    11    4    5 1   
    12    4   26 1   
    13    4   33 1   
    14    5    6 1   
    15    5    7 1   
    16    5   34 1   
    17    7    8 1   
    18    8    9 1   
    19    8   13 1   
    20    8   35 1   
    21    9   10 1   
    22    9   36 1   
    23    9   37 1   
    24   10   11 1   
    25   11   12 1   
    26   11   16 1   
    27   11   38 1   
    28   12   13 1   
    29   12   15 1   
    30   12   39 1   
    31   13   14 1   
    32   13   40 1   
    33   14   41 1   
    34   15   42 1   
    35   16   17 1   
    36   17   18 1   
    37   17   22 1   
    38   17   43 1   
    39   18   19 1   
    40   18   44 1   
    41   18   45 1   
    42   19   20 1   
    43   20   21 1   
    44   20   25 1   
    45   20   46 1   
    46   21   22 1   
    47   21   24 1   
    48   21   47 1   
    49   22   23 1   
    50   22   48 1   
    51   23   49 1   
    52   24   50 1   
    53   25   51 1   
    54   26   52 1   
    55   27   53 1   
    56   28   54 1   
@<TRIPOS>SUBSTRUCTURE
     1 2WS         1 TEMP              0 ****  ****    0 ROOT
