@<TRIPOS>MOLECULE
2WU
   29    31     1     0     0
SMALL
bcc


@<TRIPOS>ATOM
      1 N1         -0.1620    0.5540   -0.0630 na        1 2WU     -0.249300
      2 N3          1.7890    0.0450    1.1010 nc        1 2WU     -0.450100
      3 C4          1.2460    0.3630   -0.1050 cd        1 2WU      0.425700
      4 C5          1.9240   -0.7400   -2.1840 c3        1 2WU      0.081100
      5 C6          0.7040    0.0360    1.9890 ca        1 2WU      0.058400
      6 C7          0.6630   -0.2210    3.3680 ca        1 2WU      0.050000
      7 C8         -0.5730   -0.1560    4.0000 ca        1 2WU     -0.181600
      8 C10        -3.0190   -0.0240    5.2680 cc        1 2WU      0.568800
      9 C1         -1.7820    0.1610    3.2930 ca        1 2WU      0.197400
     10 C2         -1.7660    0.4200    1.9140 ca        1 2WU     -0.083000
     11 C3         -0.5230    0.3560    1.2710 ca        1 2WU     -0.008200
     12 N2          2.0350    0.4800   -1.3380 n4        1 2WU     -0.680000
     13 C9         -0.6330   -0.4230    5.4530 c         1 2WU      0.724100
     14 O1          0.3200   -0.7070    6.1780 o         1 2WU     -0.502500
     15 N4         -1.9200   -0.3420    6.0630 n         1 2WU     -0.505400
     16 N5         -4.3590    0.0530    5.9470 n4        1 2WU     -0.806600
     17 N6         -3.0140    0.2200    3.9700 nd        1 2WU     -0.573100
     18 H1         -0.7640    0.8090   -0.8070 hn        1 2WU      0.343700
     19 H3          0.8570   -0.8920   -2.4950 hx        1 2WU      0.123367
     20 H4          2.5720   -0.5980   -3.0940 hx        1 2WU      0.123367
     21 H5          2.2790   -1.6340   -1.6010 hx        1 2WU      0.123367
     22 H6          1.5820   -0.4670    3.9360 ha        1 2WU      0.213000
     23 H7         -2.6880    0.6650    1.3620 ha        1 2WU      0.190000
     24 H8          3.0270    0.6190   -1.0660 hn        1 2WU      0.487800
     25 H9         -1.9860   -0.5170    7.0450 hn        1 2WU      0.367500
     26 H10        -5.0880    0.2940    5.2550 hn        1 2WU      0.492133
     27 H11        -4.3360    0.7790    6.6750 hn        1 2WU      0.492133
     28 H22         1.7250    1.3100   -1.8630 hn        1 2WU      0.487800
     29 H53        -4.5860   -0.8580    6.3680 hn        1 2WU      0.492133
@<TRIPOS>BOND
     1    1    3 1   
     2    1   11 1   
     3    1   18 1   
     4    2    3 2   
     5    2    5 1   
     6    3   12 1   
     7    4   12 1   
     8    4   19 1   
     9    4   20 1   
    10    4   21 1   
    11    5    6 ar  
    12    5   11 ar  
    13    6    7 ar  
    14    6   22 1   
    15    7    9 ar  
    16    7   13 1   
    17    8   15 1   
    18    8   16 1   
    19    8   17 2   
    20    9   10 ar  
    21    9   17 1   
    22   10   11 ar  
    23   10   23 1   
    24   12   24 1   
    25   12   28 1   
    26   13   14 2   
    27   13   15 1   
    28   15   25 1   
    29   16   26 1   
    30   16   27 1   
    31   16   29 1   
@<TRIPOS>SUBSTRUCTURE
     1 2WU         1 TEMP              0 ****  ****    0 ROOT
