@<TRIPOS>MOLECULE
2WU
   28    30     1     0     0
SMALL
bcc


@<TRIPOS>ATOM
      1 N1         -0.0370    0.0570   -0.0340 na        1 2WU     -0.296300
      2 N3          1.9120    0.0190    1.2500 nc        1 2WU     -0.607100
      3 C4          1.3930    0.0750   -0.0310 cd        1 2WU      0.670700
      4 C5          1.5780   -0.1100   -2.4670 c3        1 2WU      0.176100
      5 C6          0.8020    0.0100    2.0920 ca        1 2WU      0.143400
      6 C7          0.7240   -0.0330    3.4900 ca        1 2WU     -0.027000
      7 C8         -0.5350   -0.0340    4.0800 ca        1 2WU     -0.154600
      8 C10        -3.0290   -0.0310    5.2460 cc        1 2WU      0.485800
      9 C1         -1.7420    0.0050    3.3070 ca        1 2WU      0.105400
     10 C2         -1.6900    0.0450    1.8970 ca        1 2WU     -0.058000
     11 C3         -0.4320    0.0480    1.3080 ca        1 2WU     -0.072200
     12 N2          2.1460    0.2000   -1.1880 nh        1 2WU     -0.793200
     13 C9         -0.6240   -0.0770    5.5510 c         1 2WU      0.727100
     14 O1          0.3200   -0.1160    6.3470 o         1 2WU     -0.547500
     15 N4         -1.9310   -0.0730    6.1130 n         1 2WU     -0.513400
     16 N5         -4.3940   -0.0280    5.8710 n4        1 2WU     -0.796600
     17 N6         -2.9960    0.0060    3.9270 nd        1 2WU     -0.536100
     18 H1         -0.6230    0.2140   -0.8120 hn        1 2WU      0.320700
     19 H3          0.7560    0.6170   -2.7070 h1        1 2WU      0.056700
     20 H4          2.3830   -0.0040   -3.2430 h1        1 2WU      0.056700
     21 H5          1.1650   -1.1550   -2.5140 h1        1 2WU      0.056700
     22 H6          1.6370   -0.0650    4.1110 ha        1 2WU      0.193000
     23 H7         -2.6100    0.0730    1.2940 ha        1 2WU      0.165000
     24 H8          3.1240    0.0250   -1.0730 hn        1 2WU      0.464800
     25 H9         -2.0260   -0.1010    7.1040 hn        1 2WU      0.346500
     26 H10        -4.5180   -0.8820    6.4260 hn        1 2WU      0.476800
     27 H11        -4.4930    0.7980    6.4720 hn        1 2WU      0.476800
     28 H53        -5.1120    0.0040    5.1320 hn        1 2WU      0.476800
@<TRIPOS>BOND
     1    1    3 1   
     2    1   11 1   
     3    1   18 1   
     4    2    3 2   
     5    2    5 1   
     6    3   12 1   
     7    4   12 1   
     8    4   19 1   
     9    4   20 1   
    10    4   21 1   
    11    5    6 ar  
    12    5   11 ar  
    13    6    7 ar  
    14    6   22 1   
    15    7    9 ar  
    16    7   13 1   
    17    8   15 1   
    18    8   16 1   
    19    8   17 2   
    20    9   10 ar  
    21    9   17 1   
    22   10   11 ar  
    23   10   23 1   
    24   12   24 1   
    25   13   14 2   
    26   13   15 1   
    27   15   25 1   
    28   16   26 1   
    29   16   27 1   
    30   16   28 1   
@<TRIPOS>SUBSTRUCTURE
     1 2WU         1 TEMP              0 ****  ****    0 ROOT
