@<TRIPOS>MOLECULE
2WW
   23    22     1     0     0
SMALL
bcc


@<TRIPOS>ATOM
      1 C4         -0.5640   -0.3490    0.4440 c3        1 2WW     -0.084100
      2 C5          1.3330   -0.5070    2.0390 c3        1 2WW     -0.084100
      3 C3          1.5380   -1.5680   -1.6050 cx        1 2WW     -0.173100
      4 P11         3.0440   -1.7030   -2.3290 p5        1 2WW      1.356600
      5 O12         1.7940   -2.8150   -2.2910 os        1 2WW     -0.550200
      6 O13         3.2180   -1.0200   -3.6230 o         1 2WW     -0.841000
      7 N12         3.5580    0.1870   -6.0780 n3        1 2WW     -0.990400
      8 C1          1.4460   -1.7360   -0.1260 c3        1 2WW     -0.048400
      9 C2          0.9390   -0.4830    0.5770 c3        1 2WW     -0.059700
     10 H1         -0.8580   -0.3460   -0.6330 hc        1 2WW      0.023033
     11 H2         -1.0790   -1.2040    0.9460 hc        1 2WW      0.023033
     12 H3         -0.9160    0.6010    0.9150 hc        1 2WW      0.023033
     13 H4          0.9490    0.4010    2.5630 hc        1 2WW      0.023033
     14 H5          2.4450   -0.5330    2.1400 hc        1 2WW      0.023033
     15 H6          0.9130   -1.4100    2.5420 hc        1 2WW      0.023033
     16 H7          1.4160    0.4170    0.0970 hc        1 2WW      0.042700
     17 H10         0.6750   -1.0360   -2.0420 h1        1 2WW      0.061700
     18 H11         2.9060    0.6580   -5.4760 hn        1 2WW      0.329800
     19 H13         3.2060   -0.7470   -6.1770 hn        1 2WW      0.329800
     20 H14         0.7720   -2.5970    0.1340 hc        1 2WW      0.042200
     21 H15         2.4740   -1.9920    0.2540 hc        1 2WW      0.042200
     22 O11         4.1860   -2.0120   -1.4540 o         1 2WW     -0.841000
     23 H123        4.4040    0.1020   -5.5440 hn        1 2WW      0.329800
@<TRIPOS>BOND
     1    1    9 1   
     2    1   10 1   
     3    1   11 1   
     4    1   12 1   
     5    2    9 1   
     6    2   13 1   
     7    2   14 1   
     8    2   15 1   
     9    3    4 1   
    10    3    5 1   
    11    3    8 1   
    12    3   17 1   
    13    4    5 1   
    14    4    6 1   
    15    4   22 1   
    16    7   18 1   
    17    7   19 1   
    18    7   23 1   
    19    8    9 1   
    20    8   20 1   
    21    8   21 1   
    22    9   16 1   
@<TRIPOS>SUBSTRUCTURE
     1 2WW         1 TEMP              0 ****  ****    0 ROOT
