@<TRIPOS>MOLECULE
2WW
   22    19     1     0     0
SMALL
bcc


@<TRIPOS>ATOM
      1 C4       -173.2080  851.1850  808.0300 c2        1 2WW     -0.318000
      2 C5       -174.7210  850.9670  806.0650 c3        1 2WW     -0.061000
      3 C3        126.2200 -738.8320 -713.0820 c2        1 2WW     -0.651000
      4 P11       126.1520 -737.3250 -713.8990 p5        1 2WW      1.995000
      5 O12       124.7420 -736.9520 -714.1290 o         1 2WW     -0.853000
      6 O13       127.2200 -736.4130 -713.4300 o         1 2WW     -0.853000
      7 N12       125.9470 -738.9170 -711.8440 n2        1 2WW     -0.182000
      8 C1         58.1590  -36.9290  -11.1930 c3        1 2WW     -0.266000
      9 C2       -173.7120  850.5370  807.0030 c1        1 2WW     -0.562000
     10 H1        127.6050 -737.3490 -715.5290 ho        1 2WW      0.220000
     11 H2       -172.4350  850.7440  808.6760 ha        1 2WW     -0.009000
     12 H3       -173.4830  852.2090  808.3620 ha        1 2WW     -0.009000
     13 H4       -175.5940  850.2610  806.0900 hc        1 2WW     -0.013667
     14 H5       -174.3060  850.9540  805.0220 hc        1 2WW     -0.013667
     15 H6       -175.1530  852.0050  806.2190 hc        1 2WW     -0.013667
     16 H7         57.1930  -36.4590  -11.4790 hc        1 2WW      0.066000
     17 H10       126.5060 -739.6960 -713.7180 h4        1 2WW      0.083000
     18 H11       126.0020 -739.8360 -711.4460 hn        1 2WW      0.080000
     19 H13        57.9630  -37.8200  -10.5570 hc        1 2WW      0.066000
     20 H14        58.7730  -36.1970  -10.6250 hc        1 2WW      0.066000
     21 H15        58.7060  -37.2410  -12.1090 hc        1 2WW      0.066000
     22 O11       126.7980 -737.8130 -715.3400 oh        1 2WW     -0.838000
@<TRIPOS>BOND
     1    1    9 1   
     2    1   11 1   
     3    1   12 1   
     4    2    9 1   
     5    2   13 1   
     6    2   14 1   
     7    2   15 1   
     8    3    4 1   
     9    3    7 1   
    10    3   17 1   
    11    4    5 1   
    12    4    6 1   
    13    4   22 1   
    14    7   18 1   
    15    8   16 1   
    16    8   19 1   
    17    8   20 1   
    18    8   21 1   
    19   10   22 1   
@<TRIPOS>SUBSTRUCTURE
     1 2WW         1 TEMP              0 ****  ****    0 ROOT
