@<TRIPOS>MOLECULE
2WW
   23    28     1     0     0
SMALL
bcc


@<TRIPOS>ATOM
      1 C4          0.0000    0.0000    0.0000 c3        1 2WW     -0.507500
      2 C5          2.0410    0.0000    1.4420 c3        1 2WW     -0.507500
      3 C3          1.6490   -1.1790   -2.2000 DU        1 2WW     -0.335000
      4 P11         2.1860   -2.7030   -3.0420 p5        1 2WW      0.917500
      5 O12         1.3720   -3.9590   -2.4490 o         1 2WW     -0.518833
      6 O13         1.8960   -2.5740   -4.6220 o         1 2WW     -0.518833
      7 N12         2.3000   -0.0190   -2.8240 nz        1 2WW     -0.043000
      8 C1          2.0410   -1.2480   -0.7220 DU        1 2WW      0.467000
      9 C2          1.5300    0.0000    0.0000 DU        1 2WW     -0.449000
     10 H1          0.7600   -0.5630   -0.5280 DU        1 2WW      0.368500
     11 H2         -0.3610    0.5720    0.8460 hc        1 2WW      0.094750
     12 H3         -0.3610   -1.0190    0.0720 hc        1 2WW      0.094750
     13 H4          1.2750    0.1430    0.6890 DU        1 2WW      0.368500
     14 H5          3.1220   -0.0670    1.4430 hc        1 2WW      0.094750
     15 H6          1.7350    0.9160    1.9340 hc        1 2WW      0.094750
     16 H7          1.6430   -1.0950   -1.1200 DU        1 2WW     -0.223500
     17 H10         1.4740   -0.5240   -2.5670 DU        1 2WW      0.178000
     18 H11         1.9320    0.8230   -2.4270 hn        1 2WW      0.034000
     19 H13         2.0670   -0.8510   -1.7290 DU        1 2WW     -0.223500
     20 H14         3.1190   -1.2990   -0.6360 ha        1 2WW      0.104000
     21 H15         1.5640   -1.0740   -0.1360 DU        1 2WW     -0.006000
     22 O11         3.6350   -2.9060   -2.8220 o         1 2WW     -0.518833
     23 H123        3.2860   -0.0620   -2.6600 hn        1 2WW      0.034000
@<TRIPOS>BOND
     1    1    9 1   
     2    1   10 1   
     3    1   11 1   
     4    1   12 1   
     5    2    9 1   
     6    2   13 1   
     7    2   14 1   
     8    2   15 1   
     9    3    4 1   
    10    3    7 1   
    11    3    8 1   
    12    3   16 1   
    13    3   17 1   
    14    3   19 1   
    15    4    5 1   
    16    4    6 1   
    17    4   22 1   
    18    7   17 1   
    19    7   18 1   
    20    7   23 1   
    21    8    9 1   
    22    8   16 1   
    23    8   19 1   
    24    8   20 1   
    25    8   21 1   
    26    9   10 1   
    27    9   13 1   
    28    9   21 1   
@<TRIPOS>SUBSTRUCTURE
     1 2WW         1 TEMP              0 ****  ****    0 ROOT
