@<TRIPOS>MOLECULE
2WX
   53    57     1     0     0
SMALL
bcc


@<TRIPOS>ATOM
      1 C18        -0.0540   -0.3430   -0.2830 cc        1 2WX     -0.050200
      2 C20         1.3070   -0.7910   -0.3380 ca        1 2WX     -0.105800
      3 C21         1.9320   -1.7830    0.4360 ca        1 2WX     -0.071000
      4 C22         3.2690   -2.0620    0.2150 ca        1 2WX     -0.125000
      5 C23         3.9970   -1.3660   -0.7690 ca        1 2WX     -0.086000
      6 C24         3.3970   -0.3840   -1.5410 ca        1 2WX     -0.104000
      7 C19         2.0450   -0.0860   -1.3310 ca        1 2WX     -0.055100
      8 S2          1.0760    1.0560   -2.1020 ss        1 2WX      0.056500
      9 C3         -0.3070    0.6490   -1.2050 cd        1 2WX     -0.225600
     10 C1         -1.6240    1.3180   -1.3360 c3        1 2WX      0.289000
     11 C2         -1.5080    2.7790   -1.6790 ca        1 2WX     -0.154300
     12 C4         -0.8690    3.1640   -2.8660 ca        1 2WX     -0.118000
     13 C5         -0.7200    4.5090   -3.1900 ca        1 2WX     -0.113000
     14 C6         -1.2070    5.4920   -2.3250 ca        1 2WX     -0.085000
     15 C7         -1.8480    5.1270   -1.1430 ca        1 2WX     -0.114000
     16 C8         -2.0050    3.7720   -0.8210 ca        1 2WX      0.041400
     17 CL1        -2.8040    3.3810    0.6280 cl        1 2WX     -0.066400
     18 N1         -2.4830    0.6120   -2.3640 n4        1 2WX     -0.715900
     19 S1         -3.4270   -0.9080   -1.7400 sy        1 2WX      1.487200
     20 O1         -2.9490   -1.8700   -2.6120 o         1 2WX     -0.578800
     21 O2         -3.1310   -0.9560   -0.3900 o         1 2WX     -0.578800
     22 C9         -4.9050   -0.3850   -2.0800 ca        1 2WX     -0.557500
     23 C10        -5.6790    0.2900   -1.1150 ca        1 2WX      0.011000
     24 C13        -7.0030    0.6570   -1.3610 ca        1 2WX      0.039100
     25 O4         -7.6760    1.1280   -0.2510 os        1 2WX     -0.315900
     26 C16        -8.4770    2.3010   -0.4190 c3        1 2WX      0.121400
     27 C17        -9.7510    1.9940   -1.1740 c3        1 2WX     -0.156400
     28 C15        -9.5000    1.8420   -2.6540 c3        1 2WX      0.128400
     29 O3         -8.8760    0.5970   -2.9990 os        1 2WX     -0.308900
     30 C14        -7.5850    0.3740   -2.6210 ca        1 2WX      0.219100
     31 C11        -6.8110   -0.3060   -3.5950 ca        1 2WX     -0.163000
     32 C12        -5.5130   -0.6790   -3.3230 ca        1 2WX      0.007000
     33 H1         -0.7880   -0.7570    0.4200 ha        1 2WX      0.179000
     34 H2          1.3570   -2.3210    1.2040 ha        1 2WX      0.149000
     35 H3          3.7770   -2.8360    0.8120 ha        1 2WX      0.151000
     36 H4          5.0610   -1.6090   -0.9230 ha        1 2WX      0.150000
     37 H5          3.9730    0.1590   -2.3060 ha        1 2WX      0.149000
     38 H6         -2.1780    1.2030   -0.3460 hx        1 2WX      0.127700
     39 H7         -0.4620    2.3960   -3.5450 ha        1 2WX      0.140000
     40 H8         -0.2100    4.7980   -4.1220 ha        1 2WX      0.159000
     41 H9         -1.0810    6.5580   -2.5720 ha        1 2WX      0.162000
     42 H10        -2.2250    5.9030   -0.4570 ha        1 2WX      0.169000
     43 H11        -1.8730    0.3160   -3.1290 hn        1 2WX      0.446800
     44 H12        -5.2570    0.4950   -0.1120 ha        1 2WX      0.180000
     45 H13        -7.8830    3.1100   -0.9170 h1        1 2WX      0.073700
     46 H14        -8.7010    2.5880    0.6470 h1        1 2WX      0.073700
     47 H15       -10.2150    1.0560   -0.7660 hc        1 2WX      0.091200
     48 H16       -10.4790    2.8350   -1.0180 hc        1 2WX      0.091200
     49 H17        -8.8820    2.6860   -3.0580 h1        1 2WX      0.079200
     50 H18       -10.4710    1.7680   -3.2230 h1        1 2WX      0.079200
     51 H19        -7.2830   -0.5500   -4.5620 ha        1 2WX      0.185000
     52 H20        -4.9360   -1.2370   -4.0860 ha        1 2WX      0.168000
     53 H121       -3.1330    1.2960   -2.7470 hn        1 2WX      0.446800
@<TRIPOS>BOND
     1    1    2 1   
     2    1    9 2   
     3    1   33 1   
     4    2    3 ar  
     5    2    7 ar  
     6    3    4 ar  
     7    3   34 1   
     8    4    5 ar  
     9    4   35 1   
    10    5    6 ar  
    11    5   36 1   
    12    6    7 ar  
    13    6   37 1   
    14    7    8 1   
    15    8    9 1   
    16    9   10 1   
    17   10   11 1   
    18   10   18 1   
    19   10   38 1   
    20   11   12 ar  
    21   11   16 ar  
    22   12   13 ar  
    23   12   39 1   
    24   13   14 ar  
    25   13   40 1   
    26   14   15 ar  
    27   14   41 1   
    28   15   16 ar  
    29   15   42 1   
    30   16   17 1   
    31   18   19 1   
    32   18   43 1   
    33   18   53 1   
    34   19   20 2   
    35   19   21 2   
    36   19   22 1   
    37   22   23 ar  
    38   22   32 ar  
    39   23   24 ar  
    40   23   44 1   
    41   24   25 1   
    42   24   30 ar  
    43   25   26 1   
    44   26   27 1   
    45   26   45 1   
    46   26   46 1   
    47   27   28 1   
    48   27   47 1   
    49   27   48 1   
    50   28   29 1   
    51   28   49 1   
    52   28   50 1   
    53   29   30 1   
    54   30   31 ar  
    55   31   32 ar  
    56   31   51 1   
    57   32   52 1   
@<TRIPOS>SUBSTRUCTURE
     1 2WX         1 TEMP              0 ****  ****    0 ROOT
