@<TRIPOS>MOLECULE
2WX
   53    57     1     0     0
SMALL
bcc


@<TRIPOS>ATOM
      1 C18        -0.0380   -0.3130   -0.2890 cc        1 2WX     -0.050200
      2 C20         1.3240   -0.7590   -0.3490 ca        1 2WX     -0.105800
      3 C21         1.9580   -1.7340    0.4370 ca        1 2WX     -0.071000
      4 C22         3.2940   -2.0150    0.2080 ca        1 2WX     -0.125000
      5 C23         4.0110   -1.3350   -0.7960 ca        1 2WX     -0.086000
      6 C24         3.4010   -0.3690   -1.5800 ca        1 2WX     -0.104000
      7 C19         2.0500   -0.0710   -1.3630 ca        1 2WX     -0.055100
      8 S2          1.0700    1.0540   -2.1460 ss        1 2WX      0.056500
      9 C3         -0.3020    0.6610   -1.2280 cd        1 2WX     -0.225600
     10 C1         -1.6220    1.3240   -1.3580 c3        1 2WX      0.289000
     11 C2         -1.5140    2.7790   -1.7300 ca        1 2WX     -0.154300
     12 C4         -0.8880    3.1420   -2.9310 ca        1 2WX     -0.118000
     13 C5         -0.7460    4.4810   -3.2820 ca        1 2WX     -0.113000
     14 C6         -1.2260    5.4780   -2.4310 ca        1 2WX     -0.085000
     15 C7         -1.8540    5.1350   -1.2370 ca        1 2WX     -0.114000
     16 C8         -2.0050    3.7870   -0.8860 ca        1 2WX      0.041400
     17 Cl1        -2.7880    3.4220    0.5770 cl        1 2WX     -0.066400
     18 N1         -2.4900    0.5960   -2.3630 ny        1 2WX     -0.715900
     19 S1         -3.4250   -0.9130   -1.7000 sy        1 2WX      1.487200
     20 O1         -2.9560   -1.8910   -2.5600 o         1 2WX     -0.578800
     21 O2         -3.1130   -0.9360   -0.3530 o         1 2WX     -0.578800
     22 C9         -4.9070   -0.3990   -2.0330 ca        1 2WX     -0.557500
     23 C10        -5.6710    0.2930   -1.0720 ca        1 2WX      0.011000
     24 C13        -6.9990    0.6540   -1.3100 ca        1 2WX      0.039100
     25 O4         -7.6600    1.1450   -0.2010 os        1 2WX     -0.315900
     26 C16        -8.4650    2.3130   -0.3820 c3        1 2WX      0.121400
     27 C17        -9.7470    1.9910   -1.1160 c3        1 2WX     -0.156400
     28 C15        -9.5130    1.8120   -2.5950 c3        1 2WX      0.128400
     29 O3         -8.8900    0.5610   -2.9250 os        1 2WX     -0.308900
     30 C14        -7.5940    0.3470   -2.5580 ca        1 2WX      0.219100
     31 C11        -6.8310   -0.3500   -3.5270 ca        1 2WX     -0.163000
     32 C12        -5.5290   -0.7170   -3.2640 ca        1 2WX      0.007000
     33 H1         -0.7640   -0.7150    0.4290 ha        1 2WX      0.179000
     34 H2          1.3930   -2.2590    1.2210 ha        1 2WX      0.149000
     35 H3          3.8110   -2.7750    0.8150 ha        1 2WX      0.151000
     36 H4          5.0740   -1.5790   -0.9560 ha        1 2WX      0.150000
     37 H5          3.9670    0.1600   -2.3610 ha        1 2WX      0.149000
     38 H6         -2.1660    1.2270   -0.3610 hx        1 2WX      0.127700
     39 H7         -0.4850    2.3610   -3.5990 ha        1 2WX      0.140000
     40 H8         -0.2450    4.7530   -4.2250 ha        1 2WX      0.159000
     41 H9         -1.1050    6.5400   -2.7010 ha        1 2WX      0.162000
     42 H10        -2.2270    5.9230   -0.5620 ha        1 2WX      0.169000
     43 H11        -3.1450    1.2720   -2.7530 hn        1 2WX      0.446800
     44 H12        -5.2380    0.5180   -0.0780 ha        1 2WX      0.180000
     45 H13        -7.8780    3.1140   -0.9010 h1        1 2WX      0.073700
     46 H14        -8.6770    2.6200    0.6810 h1        1 2WX      0.073700
     47 H15       -10.4740    2.8330   -0.9670 hc        1 2WX      0.091200
     48 H16       -10.2050    1.0600   -0.6860 hc        1 2WX      0.091200
     49 H17       -10.4890    1.7250   -3.1520 h1        1 2WX      0.079200
     50 H18        -8.9000    2.6490   -3.0220 h1        1 2WX      0.079200
     51 H19        -7.3130   -0.6130   -4.4840 ha        1 2WX      0.185000
     52 H20        -4.9600   -1.2870   -4.0230 ha        1 2WX      0.168000
     53 H121       -1.8880    0.2860   -3.1280 hn        1 2WX      0.446800
@<TRIPOS>BOND
     1    1    2 1   
     2    1    9 2   
     3    1   33 1   
     4    2    3 ar  
     5    2    7 ar  
     6    3    4 ar  
     7    3   34 1   
     8    4    5 ar  
     9    4   35 1   
    10    5    6 ar  
    11    5   36 1   
    12    6    7 ar  
    13    6   37 1   
    14    7    8 1   
    15    8    9 1   
    16    9   10 1   
    17   10   11 1   
    18   10   18 1   
    19   10   38 1   
    20   11   12 ar  
    21   11   16 ar  
    22   12   13 ar  
    23   12   39 1   
    24   13   14 ar  
    25   13   40 1   
    26   14   15 ar  
    27   14   41 1   
    28   15   16 ar  
    29   15   42 1   
    30   16   17 1   
    31   18   19 1   
    32   18   43 1   
    33   18   53 1   
    34   19   20 2   
    35   19   21 2   
    36   19   22 1   
    37   22   23 ar  
    38   22   32 ar  
    39   23   24 ar  
    40   23   44 1   
    41   24   25 1   
    42   24   30 ar  
    43   25   26 1   
    44   26   27 1   
    45   26   45 1   
    46   26   46 1   
    47   27   28 1   
    48   27   47 1   
    49   27   48 1   
    50   28   29 1   
    51   28   49 1   
    52   28   50 1   
    53   29   30 1   
    54   30   31 ar  
    55   31   32 ar  
    56   31   51 1   
    57   32   52 1   
@<TRIPOS>SUBSTRUCTURE
     1 2WX         1 TEMP              0 ****  ****    0 ROOT
