@<TRIPOS>MOLECULE
2WY
   53    57     1     0     0
SMALL
bcc


@<TRIPOS>ATOM
      1 C7          0.5840   -0.3150    0.0130 cc        1 2WY     -0.062200
      2 C1          1.8950   -0.3690   -0.6080 ca        1 2WY     -0.128800
      3 C6          3.1810   -0.6790   -0.1680 ca        1 2WY     -0.059000
      4 C5          4.2220   -0.6230   -1.0920 ca        1 2WY     -0.139000
      5 C4          4.0010   -0.2660   -2.4320 ca        1 2WY     -0.081000
      6 C3          2.7280    0.0510   -2.9060 ca        1 2WY     -0.129000
      7 C2          1.6970   -0.0070   -1.9750 ca        1 2WY      0.077100
      8 O1          0.3450    0.2680   -2.2140 os        1 2WY     -0.237200
      9 C8         -0.3000    0.0670   -0.9670 cd        1 2WY     -0.082100
     10 C9         -1.7640    0.3150   -0.9380 c3        1 2WY      0.288000
     11 C10        -2.0940    1.7720   -0.7540 ca        1 2WY     -0.175300
     12 C11        -1.3860    2.7590   -1.4470 ca        1 2WY     -0.106000
     13 C12        -1.6760    4.1050   -1.2260 ca        1 2WY     -0.128000
     14 C13        -2.6690    4.4660   -0.3140 ca        1 2WY     -0.090000
     15 C14        -3.3780    3.4800    0.3740 ca        1 2WY     -0.128000
     16 C15        -3.0960    2.1330    0.1550 ca        1 2WY     -0.106000
     17 N1         -2.4330   -0.2240   -2.1770 ny        1 2WY     -0.709900
     18 S1         -4.2010   -0.8780   -1.9340 sy        1 2WY      1.490200
     19 O4         -4.0370   -2.1710   -2.3990 o         1 2WY     -0.581300
     20 O5         -4.4390   -0.6450   -0.5920 o         1 2WY     -0.581300
     21 C16        -4.9500    0.1080   -2.9430 ca        1 2WY     -0.559500
     22 C17        -5.2660   -0.3010   -4.2550 ca        1 2WY      0.010000
     23 C18        -6.0160    0.5020   -5.1150 ca        1 2WY      0.039100
     24 O2         -6.4070   -0.1260   -6.2800 os        1 2WY     -0.314900
     25 C23        -6.2650    0.6070   -7.5000 c3        1 2WY      0.121400
     26 C22        -7.3180    1.6850   -7.6210 c3        1 2WY     -0.156400
     27 C24        -6.9970    2.8790   -6.7580 c3        1 2WY      0.128400
     28 O3         -7.2420    2.6550   -5.3610 os        1 2WY     -0.309900
     29 C19        -6.4490    1.7790   -4.6790 ca        1 2WY      0.222100
     30 C21        -6.1300    2.1980   -3.3640 ca        1 2WY     -0.165000
     31 C20        -5.4080    1.3790   -2.5230 ca        1 2WY      0.016000
     32 H1          0.3690   -0.5370    1.0570 ha        1 2WY      0.181000
     33 H2          3.3670   -0.9600    0.8790 ha        1 2WY      0.154000
     34 H3          5.2470   -0.8640   -0.7660 ha        1 2WY      0.153000
     35 H4          4.8560   -0.2350   -3.1270 ha        1 2WY      0.153000
     36 H5          2.5500    0.3320   -3.9520 ha        1 2WY      0.157000
     37 H6         -2.1860   -0.2730   -0.0580 hx        1 2WY      0.126700
     38 H7         -0.5810    2.4740   -2.1450 ha        1 2WY      0.157000
     39 H8         -1.1110    4.8820   -1.7640 ha        1 2WY      0.155000
     40 H9         -2.8870    5.5300   -0.1300 ha        1 2WY      0.155000
     41 H10        -4.1540    3.7650    1.1020 ha        1 2WY      0.155000
     42 H11        -3.6550    1.3550    0.7040 ha        1 2WY      0.157000
     43 H12        -2.4090    0.5120   -2.8810 hn        1 2WY      0.454300
     44 H13        -4.9620   -1.3060   -4.6090 ha        1 2WY      0.183000
     45 H14        -6.4190   -0.1940   -8.2760 h1        1 2WY      0.074200
     46 H15        -5.2290    1.0270   -7.5840 h1        1 2WY      0.074200
     47 H16        -7.3750    2.0210   -8.6910 hc        1 2WY      0.091700
     48 H17        -8.3210    1.2660   -7.3380 hc        1 2WY      0.091700
     49 H18        -5.9350    3.2140   -6.8930 h1        1 2WY      0.079200
     50 H19        -7.7010    3.7330   -6.9700 h1        1 2WY      0.079200
     51 H20        -6.4940    3.1830   -3.0250 ha        1 2WY      0.184000
     52 H21        -5.1780    1.7180   -1.4930 ha        1 2WY      0.167000
     53 H121       -1.8530   -0.9890   -2.5340 hn        1 2WY      0.454300
@<TRIPOS>BOND
     1    1    2 1   
     2    1    9 2   
     3    1   32 1   
     4    2    3 ar  
     5    2    7 ar  
     6    3    4 ar  
     7    3   33 1   
     8    4    5 ar  
     9    4   34 1   
    10    5    6 ar  
    11    5   35 1   
    12    6    7 ar  
    13    6   36 1   
    14    7    8 1   
    15    8    9 1   
    16    9   10 1   
    17   10   11 1   
    18   10   17 1   
    19   10   37 1   
    20   11   12 ar  
    21   11   16 ar  
    22   12   13 ar  
    23   12   38 1   
    24   13   14 ar  
    25   13   39 1   
    26   14   15 ar  
    27   14   40 1   
    28   15   16 ar  
    29   15   41 1   
    30   16   42 1   
    31   17   18 1   
    32   17   43 1   
    33   17   53 1   
    34   18   19 2   
    35   18   20 2   
    36   18   21 1   
    37   21   22 ar  
    38   21   31 ar  
    39   22   23 ar  
    40   22   44 1   
    41   23   24 1   
    42   23   29 ar  
    43   24   25 1   
    44   25   26 1   
    45   25   45 1   
    46   25   46 1   
    47   26   27 1   
    48   26   47 1   
    49   26   48 1   
    50   27   28 1   
    51   27   49 1   
    52   27   50 1   
    53   28   29 1   
    54   29   30 ar  
    55   30   31 ar  
    56   30   51 1   
    57   31   52 1   
@<TRIPOS>SUBSTRUCTURE
     1 2WY         1 TEMP              0 ****  ****    0 ROOT
