@<TRIPOS>MOLECULE
2WZ
   61    65     1     0     0
SMALL
bcc


@<TRIPOS>ATOM
      1 CL1        -0.1090   -0.3640   -0.1970 cl        1 2WZ     -0.065400
      2 C4          1.5330    0.0280    0.0070 ca        1 2WZ     -0.193900
      3 C5          2.0240    0.1840    1.3200 ca        1 2WZ      0.482200
      4 N2          3.2800    0.5130    1.6200 nb        1 2WZ     -0.695000
      5 C6          4.1690    0.7190    0.5910 ca        1 2WZ      0.687200
      6 N4          5.4750    1.0170    0.8730 nh        1 2WZ     -0.939500
      7 C7          3.7340    0.5820   -0.7930 ca        1 2WZ     -0.045400
      8 F1          4.6250    0.7960   -1.7890 f         1 2WZ     -0.116900
      9 C2          2.4010    0.2400   -1.0760 ca        1 2WZ     -0.080300
     10 C1          1.9830    0.1690   -2.5250 c3        1 2WZ      0.290000
     11 N1          1.2140   -1.0970   -2.8340 n4        1 2WZ     -0.739900
     12 S2          2.2180   -2.5770   -3.3400 s6        1 2WZ      1.437900
     13 O2          1.4870   -3.0310   -4.4250 o         1 2WZ     -0.569300
     14 O3          3.5010   -2.0990   -3.5080 o         1 2WZ     -0.569300
     15 C23         2.0280   -3.4780   -1.9960 cx        1 2WZ     -0.549900
     16 C24         1.6770   -4.9700   -2.0420 cx        1 2WZ     -0.014900
     17 C25         0.7140   -4.0210   -1.4430 cx        1 2WZ     -0.014900
     18 C3          1.2180    1.3630   -2.9600 cc        1 2WZ     -0.272600
     19 C10         1.5600    2.0770   -4.0920 cd        1 2WZ     -0.058200
     20 S1         -0.1260    2.0190   -2.1720 ss        1 2WZ      0.184500
     21 C8         -0.3080    3.2660   -3.2810 ca        1 2WZ     -0.047100
     22 C9          0.6820    3.1880   -4.3010 ca        1 2WZ     -0.112800
     23 C14         0.7060    4.1250   -5.3490 ca        1 2WZ     -0.068000
     24 C13        -0.2570    5.1150   -5.3770 ca        1 2WZ     -0.130000
     25 C12        -1.2380    5.2000   -4.3680 ca        1 2WZ     -0.075000
     26 C11        -1.2680    4.3020   -3.3070 cp        1 2WZ     -0.110500
     27 C15        -2.2730    4.4150   -2.2360 cp        1 2WZ      0.440800
     28 C19        -2.9230    5.6470   -2.0060 ca        1 2WZ     -0.194300
     29 N3         -2.5330    3.3090   -1.4830 nb        1 2WZ     -0.698000
     30 C16        -3.4570    3.4170   -0.5160 ca        1 2WZ      0.403200
     31 C17        -4.1670    4.5980   -0.2340 ca        1 2WZ     -0.233300
     32 C18        -3.8880    5.7380   -0.9940 ca        1 2WZ     -0.025300
     33 C20        -4.6150    7.0310   -0.7190 c3        1 2WZ      0.192100
     34 C21        -6.1180    6.8490   -0.9210 c3        1 2WZ     -0.122100
     35 C22        -4.3250    7.5120    0.7010 c3        1 2WZ     -0.122100
     36 O1         -4.1250    7.9950   -1.6570 oh        1 2WZ     -0.603800
     37 H1          1.3550    0.0410    2.1940 h4        1 2WZ      0.058100
     38 H2          5.7620    1.1820    1.8090 hn        1 2WZ      0.461300
     39 H3          6.0760    1.2760    0.1280 hn        1 2WZ      0.461300
     40 H4          2.9300    0.1090   -3.1620 hx        1 2WZ      0.134700
     41 H5          0.5720   -0.8690   -3.6020 hn        1 2WZ      0.463300
     42 H6          2.7760   -3.2320   -1.1960 h1        1 2WZ      0.180700
     43 H7          1.4620   -5.4140   -3.0360 hc        1 2WZ      0.110950
     44 H8          2.2650   -5.6480   -1.3940 hc        1 2WZ      0.110950
     45 H9          0.5740   -3.9980   -0.3450 hc        1 2WZ      0.110950
     46 H10        -0.2190   -3.7780   -1.9890 hc        1 2WZ      0.110950
     47 H11         2.3960    1.8540   -4.7610 ha        1 2WZ      0.161000
     48 H12         1.4800    4.0590   -6.1280 ha        1 2WZ      0.147000
     49 H13        -0.2690    5.8550   -6.1920 ha        1 2WZ      0.151000
     50 H14        -1.9930    6.0000   -4.4420 ha        1 2WZ      0.154000
     51 H15        -2.6750    6.5400   -2.5990 ha        1 2WZ      0.173000
     52 H16        -3.6440    2.4980    0.0690 h4        1 2WZ      0.022100
     53 H17        -4.9160    4.6140    0.5700 ha        1 2WZ      0.152000
     54 H18        -6.5070    6.0550   -0.2410 hc        1 2WZ      0.051200
     55 H19        -6.3300    6.5610   -1.9780 hc        1 2WZ      0.051200
     56 H20        -6.6490    7.8050   -0.6980 hc        1 2WZ      0.051200
     57 H21        -3.2340    7.7140    0.8210 hc        1 2WZ      0.051200
     58 H22        -4.6380    6.7400    1.4420 hc        1 2WZ      0.051200
     59 H23        -4.8870    8.4550    0.9040 hc        1 2WZ      0.051200
     60 H24        -4.5930    8.8190   -1.4740 ho        1 2WZ      0.414000
     61 H121        0.6200   -1.3100   -2.0190 hn        1 2WZ      0.463300
@<TRIPOS>BOND
     1    1    2 1   
     2    2    3 ar  
     3    2    9 ar  
     4    3    4 ar  
     5    3   37 1   
     6    4    5 ar  
     7    5    6 1   
     8    5    7 ar  
     9    6   38 1   
    10    6   39 1   
    11    7    8 1   
    12    7    9 ar  
    13    9   10 1   
    14   10   11 1   
    15   10   18 1   
    16   10   40 1   
    17   11   12 1   
    18   11   41 1   
    19   11   61 1   
    20   12   13 2   
    21   12   14 2   
    22   12   15 1   
    23   15   16 1   
    24   15   17 1   
    25   15   42 1   
    26   16   17 1   
    27   16   43 1   
    28   16   44 1   
    29   17   45 1   
    30   17   46 1   
    31   18   19 2   
    32   18   20 1   
    33   19   22 1   
    34   19   47 1   
    35   20   21 1   
    36   21   22 ar  
    37   21   26 ar  
    38   22   23 ar  
    39   23   24 ar  
    40   23   48 1   
    41   24   25 ar  
    42   24   49 1   
    43   25   26 ar  
    44   25   50 1   
    45   26   27 1   
    46   27   28 ar  
    47   27   29 ar  
    48   28   32 ar  
    49   28   51 1   
    50   29   30 ar  
    51   30   31 ar  
    52   30   52 1   
    53   31   32 ar  
    54   31   53 1   
    55   32   33 1   
    56   33   34 1   
    57   33   35 1   
    58   33   36 1   
    59   34   54 1   
    60   34   55 1   
    61   34   56 1   
    62   35   57 1   
    63   35   58 1   
    64   35   59 1   
    65   36   60 1   
@<TRIPOS>SUBSTRUCTURE
     1 2WZ         1 TEMP              0 ****  ****    0 ROOT
