@<TRIPOS>MOLECULE
2WZ
   61    65     1     0     0
SMALL
bcc


@<TRIPOS>ATOM
      1 Cl1        -0.1180   -0.3710   -0.2110 cl        1 2WZ     -0.065400
      2 C4          1.5200    0.0240    0.0160 ca        1 2WZ     -0.193900
      3 C5          1.9940    0.1720    1.3370 ca        1 2WZ      0.482200
      4 N2          3.2450    0.5020    1.6550 nb        1 2WZ     -0.695000
      5 C6          4.1460    0.7180    0.6380 ca        1 2WZ      0.687200
      6 N4          5.4470    1.0180    0.9390 nv        1 2WZ     -0.939500
      7 C7          3.7290    0.5890   -0.7510 ca        1 2WZ     -0.045400
      8 F1          4.6320    0.8130   -1.7340 f         1 2WZ     -0.116900
      9 C2          2.4010    0.2460   -1.0540 ca        1 2WZ     -0.080300
     10 C1          2.0020    0.1840   -2.5080 c3        1 2WZ      0.290000
     11 N1          1.2400   -1.0820   -2.8360 ny        1 2WZ     -0.739900
     12 S2          2.2550   -2.5560   -3.3400 s6        1 2WZ      1.437900
     13 O2          1.5400   -3.0040   -4.4380 o         1 2WZ     -0.569300
     14 O3          3.5390   -2.0730   -3.4880 o         1 2WZ     -0.569300
     15 C23         2.0500   -3.4660   -2.0050 cx        1 2WZ     -0.549900
     16 C24         1.7040   -4.9590   -2.0670 cx        1 2WZ     -0.014900
     17 C25         0.7310   -4.0180   -1.4730 cx        1 2WZ     -0.014900
     18 C3          1.2390    1.3790   -2.9450 cc        1 2WZ     -0.272600
     19 C10         1.5940    2.1030   -4.0660 cd        1 2WZ     -0.058200
     20 S1         -0.1190    2.0240   -2.1710 ss        1 2WZ      0.184500
     21 C8         -0.2900    3.2790   -3.2720 ca        1 2WZ     -0.047100
     22 C9          0.7160    3.2120   -4.2790 ca        1 2WZ     -0.112800
     23 C14         0.7500    4.1580   -5.3190 ca        1 2WZ     -0.068000
     24 C13        -0.2160    5.1440   -5.3520 ca        1 2WZ     -0.130000
     25 C12        -1.2110    5.2180   -4.3570 ca        1 2WZ     -0.075000
     26 C11        -1.2530    4.3110   -3.3040 cp        1 2WZ     -0.110500
     27 C15        -2.2730    4.4120   -2.2460 cp        1 2WZ      0.440800
     28 C19        -2.9320    5.6400   -2.0150 ca        1 2WZ     -0.194300
     29 N3         -2.5400    3.3000   -1.5060 nb        1 2WZ     -0.698000
     30 C16        -3.4780    3.3960   -0.5520 ca        1 2WZ      0.403200
     31 C17        -4.1970    4.5720   -0.2700 ca        1 2WZ     -0.233300
     32 C18        -3.9110    5.7190   -1.0170 ca        1 2WZ     -0.025300
     33 C20        -4.6470    7.0070   -0.7420 c3        1 2WZ      0.192100
     34 C21        -6.1460    6.8210   -0.9670 c3        1 2WZ     -0.122100
     35 C22        -4.3790    7.4780    0.6860 c3        1 2WZ     -0.122100
     36 O1         -4.1470    7.9810   -1.6650 oh        1 2WZ     -0.603800
     37 H1          1.3140    0.0210    2.2010 h4        1 2WZ      0.058100
     38 H2          6.0570    1.2830    0.2040 hn        1 2WZ      0.461300
     39 H3          5.7220    1.1770    1.8800 hn        1 2WZ      0.461300
     40 H4          2.9570    0.1310   -3.1340 hx        1 2WZ      0.134700
     41 H5          0.6070   -0.8500   -3.6110 hn        1 2WZ      0.463300
     42 H6          2.7880   -3.2250   -1.1940 h1        1 2WZ      0.180700
     43 H7          2.2860   -5.6410   -1.4160 hc        1 2WZ      0.110950
     44 H8          1.5030   -5.3970   -3.0660 hc        1 2WZ      0.110950
     45 H9          0.5770   -4.0020   -0.3760 hc        1 2WZ      0.110950
     46 H10        -0.1950   -3.7730   -2.0290 hc        1 2WZ      0.110950
     47 H11         2.4410    1.8890   -4.7260 ha        1 2WZ      0.161000
     48 H12         1.5360    4.1000   -6.0870 ha        1 2WZ      0.147000
     49 H13        -0.2190    5.8910   -6.1620 ha        1 2WZ      0.151000
     50 H14        -1.9680    6.0160   -4.4360 ha        1 2WZ      0.154000
     51 H15        -2.6780    6.5390   -2.5990 ha        1 2WZ      0.173000
     52 H16        -3.6700    2.4720    0.0240 h4        1 2WZ      0.022100
     53 H17        -4.9570    4.5790    0.5230 ha        1 2WZ      0.152000
     54 H18        -6.3420    6.5420   -2.0300 hc        1 2WZ      0.051200
     55 H19        -6.5420    6.0200   -0.2990 hc        1 2WZ      0.051200
     56 H20        -6.6840    7.7740   -0.7440 hc        1 2WZ      0.051200
     57 H21        -3.2910    7.6830    0.8230 hc        1 2WZ      0.051200
     58 H22        -4.7000    6.6990    1.4160 hc        1 2WZ      0.051200
     59 H23        -4.9470    8.4170    0.8880 hc        1 2WZ      0.051200
     60 H24        -4.6210    8.8010   -1.4820 ho        1 2WZ      0.414000
     61 H121        0.6360   -1.3020   -2.0310 hn        1 2WZ      0.463300
@<TRIPOS>BOND
     1    1    2 1   
     2    2    3 ar  
     3    2    9 ar  
     4    3    4 ar  
     5    3   37 1   
     6    4    5 ar  
     7    5    6 1   
     8    5    7 ar  
     9    6   38 1   
    10    6   39 1   
    11    7    8 1   
    12    7    9 ar  
    13    9   10 1   
    14   10   11 1   
    15   10   18 1   
    16   10   40 1   
    17   11   12 1   
    18   11   41 1   
    19   11   61 1   
    20   12   13 2   
    21   12   14 2   
    22   12   15 1   
    23   15   16 1   
    24   15   17 1   
    25   15   42 1   
    26   16   17 1   
    27   16   43 1   
    28   16   44 1   
    29   17   45 1   
    30   17   46 1   
    31   18   19 2   
    32   18   20 1   
    33   19   22 1   
    34   19   47 1   
    35   20   21 1   
    36   21   22 ar  
    37   21   26 ar  
    38   22   23 ar  
    39   23   24 ar  
    40   23   48 1   
    41   24   25 ar  
    42   24   49 1   
    43   25   26 ar  
    44   25   50 1   
    45   26   27 1   
    46   27   28 ar  
    47   27   29 ar  
    48   28   32 ar  
    49   28   51 1   
    50   29   30 ar  
    51   30   31 ar  
    52   30   52 1   
    53   31   32 ar  
    54   31   53 1   
    55   32   33 1   
    56   33   34 1   
    57   33   35 1   
    58   33   36 1   
    59   34   54 1   
    60   34   55 1   
    61   34   56 1   
    62   35   57 1   
    63   35   58 1   
    64   35   59 1   
    65   36   60 1   
@<TRIPOS>SUBSTRUCTURE
     1 2WZ         1 TEMP              0 ****  ****    0 ROOT
