@<TRIPOS>MOLECULE
2X0
   27    26     1     0     0
SMALL
bcc


@<TRIPOS>ATOM
      1 C6          0.2540    0.8090   -0.9400 c3        1 2X0     -0.103000
      2 C8          1.6260    0.8480   -0.2640 c3        1 2X0     -0.159000
      3 C3         -2.1100    1.5940   -0.9500 c3        1 2X0     -0.070000
      4 P11        -1.8520    1.0540    3.4960 p3        1 2X0      2.391000
      5 O12        -2.7400    1.6640    2.4900 o         1 2X0     -1.125000
      6 O13        -0.5950    0.4460    3.0190 o         1 2X0     -1.125000
      7 N10        -3.2520    2.1860   -0.2980 n3        1 2X0     -0.341000
      8 C1         -0.7980    1.5660   -0.1610 c3        1 2X0     -0.218000
      9 C17         1.6940   -0.0850    0.8900 c2        1 2X0     -0.059000
     10 C18         2.7550   -0.9150    1.0490 c2        1 2X0     -0.250000
     11 C19         3.8140   -0.9380    0.0860 c2        1 2X0     -0.001000
     12 C20         3.7770   -0.1250   -1.0130 c2        1 2X0     -0.271000
     13 C21         2.7000    0.7600   -1.2610 c1        1 2X0     -0.119000
     14 H1         -0.0610   -0.2590   -1.0620 hc        1 2X0      0.083000
     15 H2          0.3560    1.2540   -1.9660 hc        1 2X0      0.083000
     16 H3         -2.3780    0.5370   -1.2340 h1        1 2X0      0.060500
     17 H6         -1.9320    2.1630   -1.9090 h1        1 2X0      0.060500
     18 H7         -2.9900    3.0610    0.1170 hn        1 2X0      0.158000
     19 H9         -0.4520    2.6180    0.0170 hc        1 2X0      0.105500
     20 H10        -0.9670    1.1030    0.8560 hc        1 2X0      0.105500
     21 H11         1.7640    1.8970    0.1690 hc        1 2X0      0.170000
     22 H12         0.8570   -0.0530    1.6210 ha        1 2X0      0.227000
     23 H13         2.8200   -1.5900    1.9150 ha        1 2X0      0.132000
     24 H14         4.6510   -1.6340    0.2600 ha        1 2X0      0.108000
     25 H15         4.5900   -0.1540   -1.7550 ha        1 2X0      0.123000
     26 O11        -2.1980    1.0490    4.9240 o         1 2X0     -1.125000
     27 H103       -3.5620    1.5970    0.4580 hn        1 2X0      0.158000
@<TRIPOS>BOND
     1    1    2 1   
     2    1    8 1   
     3    1   14 1   
     4    1   15 1   
     5    2    9 1   
     6    2   13 1   
     7    2   21 1   
     8    3    7 1   
     9    3    8 1   
    10    3   16 1   
    11    3   17 1   
    12    4    5 1   
    13    4    6 1   
    14    4   26 1   
    15    7   18 1   
    16    7   27 1   
    17    8   19 1   
    18    8   20 1   
    19    9   10 1   
    20    9   22 1   
    21   10   11 1   
    22   10   23 1   
    23   11   12 1   
    24   11   24 1   
    25   12   13 1   
    26   12   25 1   
@<TRIPOS>SUBSTRUCTURE
     1 2X0         1 TEMP              0 ****  ****    0 ROOT
