@<TRIPOS>MOLECULE
2X0
   27    26     1     0     0
SMALL
bcc


@<TRIPOS>ATOM
      1 C6         -0.1410    0.2450   -1.1360 c3        1 2X0     -0.106000
      2 C8          1.2170   -0.1450   -0.7080 c2        1 2X0     -0.014000
      3 C3         -1.9580    1.9480   -1.0150 c3        1 2X0     -0.070000
      4 P11        -1.9360    0.8650    3.3410 p3        1 2X0      2.389000
      5 O12        -2.6060    1.7910    2.4110 o         1 2X0     -1.124333
      6 O13        -0.8040    0.0730    2.8220 o         1 2X0     -1.124333
      7 N10        -2.7580    2.8910   -0.2740 n3        1 2X0     -0.344000
      8 C1         -0.7440    1.3550   -0.2960 c3        1 2X0     -0.207000
      9 C17         1.4840   -0.6480    0.6860 c3        1 2X0     -0.155000
     10 C18         2.7970   -0.1100    1.1810 c2        1 2X0     -0.119000
     11 C19         3.7830    0.3350    0.3680 c2        1 2X0     -0.185000
     12 C20         3.6270    0.0650   -1.0670 c2        1 2X0     -0.106000
     13 C21         2.3450   -0.0330   -1.4100 c1        1 2X0     -0.231000
     14 H1         -0.8070   -0.6600   -1.0760 hc        1 2X0      0.079500
     15 H2         -0.1100    0.5670   -2.2120 hc        1 2X0      0.079500
     16 H3         -2.6280    1.1020   -1.3410 h1        1 2X0      0.060000
     17 H6         -1.5960    2.4670   -1.9490 h1        1 2X0      0.060000
     18 H7         -3.2740    2.4160    0.4500 hn        1 2X0      0.159000
     19 H9         -1.0470    0.9700    0.7230 hc        1 2X0      0.110000
     20 H10         0.0180    2.1590   -0.1270 hc        1 2X0      0.110000
     21 H11         0.6470   -0.2710    1.3550 hc        1 2X0      0.162000
     22 H12         1.4880   -1.7660    0.7690 hc        1 2X0      0.162000
     23 H13         2.9030   -0.1040    2.2760 ha        1 2X0      0.133000
     24 H14         4.7150    0.7770    0.7350 ha        1 2X0      0.117000
     25 H15         4.4970   -0.1530   -1.6890 ha        1 2X0      0.130000
     26 O11        -2.3740    0.7310    4.7370 o         1 2X0     -1.124333
     27 H103       -2.1620    3.5530    0.1870 hn        1 2X0      0.159000
@<TRIPOS>BOND
     1    1    2 1   
     2    1    8 1   
     3    1   14 1   
     4    1   15 1   
     5    2    9 1   
     6    2   13 1   
     7    3    7 1   
     8    3    8 1   
     9    3   16 1   
    10    3   17 1   
    11    4    5 1   
    12    4    6 1   
    13    4   26 1   
    14    7   18 1   
    15    7   27 1   
    16    8   19 1   
    17    8   20 1   
    18    9   10 1   
    19    9   21 1   
    20    9   22 1   
    21   10   11 1   
    22   10   23 1   
    23   11   12 1   
    24   11   24 1   
    25   12   13 1   
    26   12   25 1   
@<TRIPOS>SUBSTRUCTURE
     1 2X0         1 TEMP              0 ****  ****    0 ROOT
