@<TRIPOS>MOLECULE
2X0
   27    26     1     0     0
SMALL
bcc


@<TRIPOS>ATOM
      1 C6         -0.0430    0.4230   -1.4560 c3        1 2X0     -0.112000
      2 C8          1.2210   -0.0840   -0.8850 c2        1 2X0     -0.022000
      3 C3         -1.8000    1.7140   -0.2030 c3        1 2X0     -0.099000
      4 P11        -2.1990    0.6050    3.3460 p3        1 2X0      2.385000
      5 O12        -2.8490    1.7740    2.7250 o         1 2X0     -1.123333
      6 O13        -1.0970   -0.0430    2.6090 o         1 2X0     -1.123333
      7 N10        -2.3210    3.0130    0.1780 n8        1 2X0     -0.340000
      8 C1         -0.4390    1.7820   -0.8950 c3        1 2X0     -0.151000
      9 C17         1.2680   -0.5620    0.5420 c3        1 2X0     -0.152000
     10 C18         2.5560   -0.1300    1.1830 c2        1 2X0     -0.115000
     11 C19         3.6710    0.1960    0.4870 c2        1 2X0     -0.189000
     12 C20         3.6630   -0.1050   -0.9500 c2        1 2X0     -0.102000
     13 C21         2.4290   -0.0940   -1.4470 c1        1 2X0     -0.230000
     14 H1         -0.8510   -0.3300   -1.2420 hc        1 2X0      0.085000
     15 H2          0.0540    0.4970   -2.5720 hc        1 2X0      0.085000
     16 H3         -1.7060    1.0200    0.6930 h1        1 2X0      0.080500
     17 H6         -2.5450    1.2550   -0.9130 h1        1 2X0      0.080500
     18 H7         -3.1320    2.8650    0.7580 hn        1 2X0      0.149000
     19 H9         -0.4670    2.5290   -1.7300 hc        1 2X0      0.079000
     20 H10         0.3300    2.1370   -0.1600 hc        1 2X0      0.079000
     21 H11         0.3910   -0.0970    1.0950 hc        1 2X0      0.163500
     22 H12         1.1550   -1.6720    0.6530 hc        1 2X0      0.163500
     23 H13         2.5310   -0.1040    2.2830 ha        1 2X0      0.137000
     24 H14         4.5900    0.5620    0.9560 ha        1 2X0      0.118000
     25 H15         4.5780   -0.4230   -1.4550 ha        1 2X0      0.130000
     26 O11        -2.6280    0.0980    4.6570 o         1 2X0     -1.123333
     27 H103       -1.6430    3.4810    0.7510 hn        1 2X0      0.149000
@<TRIPOS>BOND
     1    1    2 1   
     2    1    8 1   
     3    1   14 1   
     4    1   15 1   
     5    2    9 1   
     6    2   13 1   
     7    3    7 1   
     8    3    8 1   
     9    3   16 1   
    10    3   17 1   
    11    4    5 1   
    12    4    6 1   
    13    4   26 1   
    14    7   18 1   
    15    7   27 1   
    16    8   19 1   
    17    8   20 1   
    18    9   10 1   
    19    9   21 1   
    20    9   22 1   
    21   10   11 1   
    22   10   23 1   
    23   11   12 1   
    24   11   24 1   
    25   12   13 1   
    26   12   25 1   
@<TRIPOS>SUBSTRUCTURE
     1 2X0         1 TEMP              0 ****  ****    0 ROOT
