@<TRIPOS>MOLECULE
2X1
   40    39     1     0     0
SMALL
bcc


@<TRIPOS>ATOM
      1 C1         -1.2720   -0.0820   -0.6520 c2        1 2X1      0.410000
      2 N3          0.0750   -0.4340   -0.8190 ns        1 2X1     -0.312000
      3 N4         -1.9430   -0.5750    0.4910 ns        1 2X1     -0.303000
      4 C5         -5.9840    0.1600    1.7050 c2        1 2X1      0.225000
      5 N6         -8.3380    0.4400    1.1530 n8        1 2X1     -0.319000
      6 O7         -1.8560    0.6620   -1.4730 o         1 2X1     -0.377000
      7 C8          0.7200   -0.1370   -2.0290 c2        1 2X1      0.046000
      8 C9         -5.0530   -0.5770    2.5570 c3        1 2X1     -0.280000
      9 C10        -5.5630    0.5990    0.3940 c3        1 2X1     -0.214000
     10 N11        -7.6390    0.8570    3.4030 n2        1 2X1     -0.137000
     11 C12        -3.2710   -0.2980    0.8090 c2        1 2X1      0.017000
     12 C13         4.9510    1.7750   -1.9360 c2        1 2X1     -0.230000
     13 C14        -3.6930   -0.7870    2.1010 c1        1 2X1     -0.023000
     14 C15        -4.1690    0.3510   -0.0050 c2        1 2X1     -0.138000
     15 C16         4.6260    0.5700   -2.2960 c1        1 2X1     -0.138000
     16 C18         2.9780   -1.1680   -2.8480 c2        1 2X1     -0.025000
     17 C19         1.8730   -0.6460   -2.3930 c1        1 2X1     -0.234000
     18 C20         8.2440    1.9040   -3.2090 c2        1 2X1      0.107000
     19 C21         4.3210   -0.6460   -2.6650 c2        1 2X1     -0.074000
     20 H1          0.5000   -1.1000   -0.2130 hn        1 2X1      0.242000
     21 H2         -1.4380   -1.0800    1.1920 hn        1 2X1      0.268000
     22 H3         -5.8070    1.7140    0.2740 hc        1 2X1      0.249000
     23 H4         -8.5900   -0.5030    0.9210 hn        1 2X1      0.216000
     24 H5         -5.4830   -1.6200    2.7770 hc        1 2X1      0.244500
     25 H6         -6.2650    0.1460   -0.3980 hc        1 2X1      0.249000
     26 H7         -6.8850    0.9730    4.0460 hn        1 2X1      0.184000
     27 H8          5.0340    2.6000   -2.6600 ha        1 2X1      0.134500
     28 H9         -4.9850   -0.1230    3.6040 hc        1 2X1      0.244500
     29 H10        -3.8990    0.7320   -1.0120 ha        1 2X1      0.222000
     30 H11         5.0710    2.0590   -0.8790 ha        1 2X1      0.134500
     31 H12        10.2190    2.3180   -3.0530 hn        1 2X1      0.293000
     32 H14         2.9290   -2.1000   -3.4480 ha        1 2X1      0.155000
     33 H15         0.1760    0.5890   -2.6740 h4        1 2X1      0.197000
     34 H16         8.2520    1.7180   -4.3090 h4        1 2X1      0.217500
     35 H17         7.2650    1.8050   -2.6710 h4        1 2X1      0.217500
     36 H18         5.1290   -1.3700   -2.8870 ha        1 2X1      0.148000
     37 N17         9.3290    2.2230   -2.5830 n8        1 2X1     -0.135000
     38 H63        -9.1590    0.9860    1.3560 hn        1 2X1      0.216000
     39 H173        9.3490    2.3970   -1.5890 hn        1 2X1      0.293000
     40 C2         -7.3650    0.4840    2.1930 c2        1 2X1      0.006000
@<TRIPOS>BOND
     1    1    2 1   
     2    1    3 1   
     3    1    6 1   
     4    2    7 1   
     5    2   20 1   
     6    3   11 1   
     7    3   21 1   
     8    4    8 1   
     9    4    9 1   
    10    4   40 1   
    11    5   23 1   
    12    5   38 1   
    13    5   40 1   
    14    7   17 1   
    15    7   33 1   
    16    8   13 1   
    17    8   24 1   
    18    8   28 1   
    19    9   14 1   
    20    9   22 1   
    21    9   25 1   
    22   10   26 1   
    23   10   40 1   
    24   11   13 1   
    25   11   14 1   
    26   12   15 1   
    27   12   27 1   
    28   12   30 1   
    29   14   29 1   
    30   15   19 1   
    31   16   17 1   
    32   16   19 1   
    33   16   32 1   
    34   18   34 1   
    35   18   35 1   
    36   18   37 1   
    37   19   36 1   
    38   31   37 1   
    39   37   39 1   
@<TRIPOS>SUBSTRUCTURE
     1 2X1         1 TEMP              0 ****  ****    0 ROOT
