@<TRIPOS>MOLECULE
2X1
   38    38     1     0     0
SMALL
bcc


@<TRIPOS>ATOM
      1 C1         -0.4420   -0.6670   -0.4790 c         1 2X1      0.782100
      2 N3          0.8450   -1.2240   -0.4320 n         1 2X1     -0.468100
      3 N4         -1.2930   -0.9450    0.6180 n         1 2X1     -0.456100
      4 C5         -4.7480    0.8180    1.9840 c3        1 2X1     -0.124600
      5 N6         -6.9860    0.9600    0.9460 nh        1 2X1     -0.899800
      6 O7         -0.8260    0.0300   -1.4430 o         1 2X1     -0.611100
      7 C8          1.8520   -0.9190   -1.3510 ce        1 2X1      0.192900
      8 C9         -4.6620   -0.6900    2.0130 c2        1 2X1     -0.162300
      9 C10        -4.1260    1.3150    0.6980 c2        1 2X1     -0.122200
     10 N11        -6.7360    1.8440    3.1210 n2        1 2X1     -0.841100
     11 C12        -2.6200   -0.5660    0.6840 ce        1 2X1      0.086500
     12 C13         1.7420   -0.3730   -2.6090 c2        1 2X1     -0.203200
     13 C14        -3.5540   -1.1620    1.4690 c1        1 2X1     -0.166800
     14 C15        -3.1740    0.6410    0.0180 ce        1 2X1     -0.145000
     15 C16         2.8890   -0.1070   -3.5410 c3        1 2X1     -0.037200
     16 C18         4.1790   -1.0240   -1.8190 c1        1 2X1     -0.085100
     17 C19         3.2280   -1.2110   -1.0750 cg        1 2X1     -0.265300
     18 C20         6.3190    2.2370   -3.0630 c1        1 2X1     -0.136500
     19 C21         4.3660   -0.4870   -3.1370 c3        1 2X1     -0.016300
     20 H1          1.1560   -1.6920    0.3910 hn        1 2X1      0.331500
     21 H2         -1.0100   -1.6200    1.2960 hn        1 2X1      0.328500
     22 H3         -6.6890    0.1460    0.4560 hn        1 2X1      0.404800
     23 H4         -7.9740    1.0360    1.0500 hn        1 2X1      0.404800
     24 H5         -4.1670    1.2800    2.8330 hc        1 2X1      0.087700
     25 H6         -4.4950    2.2900    0.3450 ha        1 2X1      0.154000
     26 H7         -6.0820    2.0750    3.8360 hn        1 2X1      0.392400
     27 H8          0.7570   -0.0790   -3.0070 ha        1 2X1      0.173000
     28 H9         -5.5100   -1.2790    2.3720 ha        1 2X1      0.152000
     29 H10        -2.7420    0.9870   -0.9310 ha        1 2X1      0.182000
     30 H11         6.1860    2.0020   -1.1000 hn        1 2X1      0.393300
     31 H12         7.1530    3.3080   -1.5170 hn        1 2X1      0.393300
     32 H14         4.7830   -1.2380   -3.8540 hc        1 2X1      0.095200
     33 H15         2.6660   -0.6460   -4.5010 hc        1 2X1      0.059200
     34 H16         6.7750    2.8690   -3.8520 ha        1 2X1     -0.006500
     35 H17         2.8900    0.9950   -3.7570 hc        1 2X1      0.059200
     36 H18         5.0250    0.4290   -3.1590 hc        1 2X1      0.095200
     37 C2         -6.2210    1.2380    2.0930 c2        1 2X1      0.610200
     38 N17         6.5800    2.5510   -1.8340 n3        1 2X1     -0.631600
@<TRIPOS>BOND
     1    1    2 1   
     2    1    3 1   
     3    1    6 2   
     4    2    7 1   
     5    2   20 1   
     6    3   11 1   
     7    3   21 1   
     8    4    8 1   
     9    4    9 1   
    10    4   24 1   
    11    4   37 1   
    12    5   22 1   
    13    5   23 1   
    14    5   37 1   
    15    7   12 2   
    16    7   17 1   
    17    8   13 2   
    18    8   28 1   
    19    9   14 2   
    20    9   25 1   
    21   10   26 1   
    22   10   37 2   
    23   11   13 2   
    24   11   14 1   
    25   12   15 1   
    26   12   27 1   
    27   14   29 1   
    28   15   19 1   
    29   15   33 1   
    30   15   35 1   
    31   16   17 3   
    32   16   19 1   
    33   18   34 1   
    34   18   38 3   
    35   19   32 1   
    36   19   36 1   
    37   30   38 1   
    38   31   38 1   
@<TRIPOS>SUBSTRUCTURE
     1 2X1         1 TEMP              0 ****  ****    0 ROOT
