@<TRIPOS>MOLECULE
2X1
   40    41     1     0     0
SMALL
bcc


@<TRIPOS>ATOM
      1 C1         -0.2380    0.3060   -0.2350 c2        1 2X1      0.427000
      2 N3          1.1270    0.6170   -0.1930 n         1 2X1     -0.310000
      3 N4         -1.0450    0.7770    0.8390 n         1 2X1     -0.320000
      4 C5         -5.2050   -0.0570    1.7200 c3        1 2X1     -0.079000
      5 N6         -7.1690    1.2450    0.9650 n3        1 2X1     -0.327000
      6 O7         -0.7630   -0.3720   -1.1420 o         1 2X1     -0.359000
      7 C8          2.0220    0.3150   -1.2410 ca        1 2X1      0.080000
      8 C9         -4.5440    1.2780    2.0610 c2        1 2X1     -0.022000
      9 C10        -4.6490   -0.4890    0.3440 c3        1 2X1     -0.197000
     10 N11        -7.5470   -0.6790    2.3250 n2        1 2X1     -0.195000
     11 C12        -2.4160    0.5850    0.8750 c2        1 2X1      0.069000
     12 C13         3.1870    1.1070   -1.3810 ca        1 2X1     -0.135000
     13 C14        -3.2700    1.2330    1.7740 c1        1 2X1      0.086000
     14 C15        -3.1790   -0.3660    0.1780 c2        1 2X1      0.018000
     15 C16         4.1060    0.8230   -2.3920 ca        1 2X1     -0.150000
     16 C18         2.7550   -1.0340   -3.1250 ca        1 2X1     -0.084000
     17 C19         1.8260   -0.7710   -2.1220 ca        1 2X1     -0.094000
     18 C20         5.2960    1.7040   -2.5820 c3        1 2X1     -0.077000
     19 C21         3.8910   -0.2420   -3.2730 ca        1 2X1     -0.125000
     20 H1          1.4530    1.2790    0.4780 hn        1 2X1      0.247000
     21 H2         -0.6300    1.1920    1.6460 hn        1 2X1      0.267000
     22 H3         -5.1290    0.1220   -0.4780 hc        1 2X1      0.165000
     23 H4         -7.0610    1.1140   -0.0220 hn        1 2X1      0.201000
     24 H5         -4.9240   -0.8300    2.4920 hc        1 2X1      0.148000
     25 H6         -4.9520   -1.5610    0.1700 hc        1 2X1      0.165000
     26 H7         -7.1560   -1.3920    2.9020 hn        1 2X1      0.181000
     27 H8          3.3670    1.9600   -0.7070 ha        1 2X1      0.144000
     28 H9         -5.1540    2.1250    2.4280 ha        1 2X1      0.267000
     29 H10        -2.6710   -1.1330   -0.4450 ha        1 2X1      0.230000
     30 H11         6.6080    0.7060   -1.3000 hn        1 2X1      0.259000
     31 H12         6.6390    0.1350   -2.8620 hn        1 2X1      0.259000
     32 H14         2.5810   -1.8790   -3.8150 ha        1 2X1      0.175000
     33 H15         0.9310   -1.4140   -2.0390 ha        1 2X1      0.189000
     34 H16         5.3480    2.0560   -3.6560 hx        1 2X1      0.158500
     35 H17         5.2500    2.6090   -1.9080 hx        1 2X1      0.158500
     36 H18         4.5940   -0.4460   -4.0950 ha        1 2X1      0.145000
     37 N17         6.5760    0.9830   -2.2870 n4        1 2X1     -0.070000
     38 H63        -8.1140    1.5130    1.1800 hn        1 2X1      0.201000
     39 H173        7.3780    1.5890   -2.4910 hn        1 2X1      0.259000
     40 C2         -6.7370    0.1000    1.6940 c2        1 2X1      0.042000
@<TRIPOS>BOND
     1    1    2 1   
     2    1    3 1   
     3    1    6 1   
     4    2    7 1   
     5    2   20 1   
     6    3   11 1   
     7    3   21 1   
     8    4    8 1   
     9    4    9 1   
    10    4   24 1   
    11    4   40 1   
    12    5   23 1   
    13    5   38 1   
    14    5   40 1   
    15    7   12 1   
    16    7   17 1   
    17    8   13 1   
    18    8   28 1   
    19    9   14 1   
    20    9   22 1   
    21    9   25 1   
    22   10   26 1   
    23   10   40 1   
    24   11   13 1   
    25   11   14 1   
    26   12   15 1   
    27   12   27 1   
    28   14   29 1   
    29   15   18 1   
    30   15   19 1   
    31   16   17 1   
    32   16   19 1   
    33   16   32 1   
    34   17   33 1   
    35   18   34 1   
    36   18   35 1   
    37   18   37 1   
    38   19   36 1   
    39   30   37 1   
    40   31   37 1   
    41   37   39 1   
@<TRIPOS>SUBSTRUCTURE
     1 2X1         1 TEMP              0 ****  ****    0 ROOT
