@<TRIPOS>MOLECULE
2X4
   45    49     1     0     0
SMALL
bcc


@<TRIPOS>ATOM
      1 C1          0.0650    0.0460    0.0440 c3        1 2X4      0.121400
      2 O2          1.4850    0.1180    0.0740 os        1 2X4     -0.391600
      3 C3          2.0140    0.0610    1.3890 c3        1 2X4      0.125400
      4 C4          1.6020   -1.2510    2.0730 c3        1 2X4      0.109100
      5 C5          0.0810   -1.4140    2.0560 c3        1 2X4     -0.086700
      6 C6         -0.4210   -1.2750    0.6290 c3        1 2X4     -0.116400
      7 O7          2.0940   -1.1450    3.4180 os        1 2X4     -0.303900
      8 C8          1.5890   -2.0790    4.2950 ca        1 2X4      0.172100
      9 C9          0.4500   -2.8590    4.0480 ca        1 2X4     -0.190300
     10 C10        -0.3150   -2.7280    2.7580 c3        1 2X4      0.176500
     11 C11         2.2830   -2.1840    5.5190 ca        1 2X4     -0.141000
     12 C12         1.8490   -3.0900    6.4720 ca        1 2X4     -0.060000
     13 C13         0.7280   -3.9080    6.2290 cp        1 2X4     -0.050000
     14 C14         0.0440   -3.7840    5.0200 ca        1 2X4     -0.089000
     15 N15        -0.0760   -3.9350    1.9110 n2        1 2X4     -0.494900
     16 C16        -1.2240   -4.5430    1.7880 c2        1 2X4      0.588500
     17 O17        -2.3550   -3.9700    2.3960 os        1 2X4     -0.439400
     18 C18        -1.8710   -2.7400    3.0200 c3        1 2X4      0.107400
     19 C19         0.2890   -4.8750    7.2270 cp        1 2X4     -0.157300
     20 C20         1.2120   -5.6170    7.9790 ca        1 2X4     -0.079000
     21 C21         0.7320   -6.5380    8.9150 ca        1 2X4     -0.100900
     22 C22        -0.6640   -6.6910    9.0710 ca        1 2X4      0.414200
     23 N23        -1.5570   -5.9840    8.3580 nb        1 2X4     -0.647000
     24 C24        -1.0870   -5.0960    7.4630 ca        1 2X4      0.396200
     25 N25        -1.5300   -5.7910    1.0910 n4        1 2X4     -0.765600
     26 CL1         1.7980   -7.4570    9.8470 cl        1 2X4     -0.046400
     27 H1         -0.1890    0.1200   -1.0480 h1        1 2X4      0.067200
     28 H2         -0.3780    0.9130    0.6010 h1        1 2X4      0.067200
     29 H3          1.6680    0.9390    1.9950 h1        1 2X4      0.079700
     30 H4          3.1270    0.1010    1.2490 h1        1 2X4      0.079700
     31 H5          2.1010   -2.1280    1.5790 h1        1 2X4      0.081700
     32 H6         -0.3660   -0.5860    2.6810 hc        1 2X4      0.092700
     33 H7         -1.5390   -1.3040    0.6010 hc        1 2X4      0.053700
     34 H8         -0.0280   -2.1080   -0.0100 hc        1 2X4      0.053700
     35 H9          3.1610   -1.5430    5.6930 ha        1 2X4      0.173000
     36 H10         2.3850   -3.1710    7.4330 ha        1 2X4      0.159000
     37 H11        -0.8280   -4.4280    4.8270 ha        1 2X4      0.123000
     38 H12        -2.1380   -2.8080    4.1030 h1        1 2X4      0.107700
     39 H13        -2.4030   -1.8990    2.5130 h1        1 2X4      0.107700
     40 H14         2.2950   -5.4790    7.8300 ha        1 2X4      0.159000
     41 H15        -1.0820   -7.4090    9.8030 h4        1 2X4      0.049100
     42 H16        -1.8530   -4.5180    6.9170 h4        1 2X4      0.019100
     43 H17        -1.8850   -6.4690    1.7810 hn        1 2X4      0.491133
     44 H18        -2.2600   -5.6040    0.3900 hn        1 2X4      0.491133
     45 H253       -0.6830   -6.1610    0.6350 hn        1 2X4      0.491133
@<TRIPOS>BOND
     1    1    2 1   
     2    1    6 1   
     3    1   27 1   
     4    1   28 1   
     5    2    3 1   
     6    3    4 1   
     7    3   29 1   
     8    3   30 1   
     9    4    5 1   
    10    4    7 1   
    11    4   31 1   
    12    5    6 1   
    13    5   10 1   
    14    5   32 1   
    15    6   33 1   
    16    6   34 1   
    17    7    8 1   
    18    8    9 ar  
    19    8   11 ar  
    20    9   10 1   
    21    9   14 ar  
    22   10   15 1   
    23   10   18 1   
    24   11   12 ar  
    25   11   35 1   
    26   12   13 ar  
    27   12   36 1   
    28   13   14 ar  
    29   13   19 1   
    30   14   37 1   
    31   15   16 2   
    32   16   17 1   
    33   16   25 1   
    34   17   18 1   
    35   18   38 1   
    36   18   39 1   
    37   19   20 ar  
    38   19   24 ar  
    39   20   21 ar  
    40   20   40 1   
    41   21   22 ar  
    42   21   26 1   
    43   22   23 ar  
    44   22   41 1   
    45   23   24 ar  
    46   24   42 1   
    47   25   43 1   
    48   25   44 1   
    49   25   45 1   
@<TRIPOS>SUBSTRUCTURE
     1 2X4         1 TEMP              0 ****  ****    0 ROOT
