@<TRIPOS>MOLECULE
2X4
   45    49     1     0     0
SMALL
bcc


@<TRIPOS>ATOM
      1 C1          0.0550    0.0340    0.0340 c3        1 2X4      0.121400
      2 O2          1.4750    0.1150    0.0680 os        1 2X4     -0.391600
      3 C3          2.0020    0.0650    1.3830 c3        1 2X4      0.125400
      4 C4          1.5950   -1.2480    2.0710 c3        1 2X4      0.109100
      5 C5          0.0760   -1.4190    2.0510 c3        1 2X4     -0.086700
      6 C6         -0.4240   -1.2870    0.6220 c3        1 2X4     -0.116400
      7 O7          2.0830   -1.1350    3.4170 os        1 2X4     -0.303900
      8 C8          1.5820   -2.0690    4.2950 ca        1 2X4      0.172100
      9 C9          0.4480   -2.8560    4.0470 ca        1 2X4     -0.190300
     10 C10        -0.3150   -2.7330    2.7560 c3        1 2X4      0.176500
     11 C11         2.2730   -2.1670    5.5210 ca        1 2X4     -0.141000
     12 C12         1.8420   -3.0720    6.4760 ca        1 2X4     -0.060000
     13 C13         0.7270   -3.8980    6.2330 cp        1 2X4     -0.050000
     14 C14         0.0450   -3.7810    5.0210 ca        1 2X4     -0.089000
     15 N15        -0.0670   -3.9420    1.9120 n2        1 2X4     -0.494900
     16 C16        -1.2120   -4.5570    1.7890 c2        1 2X4      0.588500
     17 O17        -2.3460   -3.9880    2.3930 os        1 2X4     -0.439400
     18 C18        -1.8720   -2.7540    3.0140 c3        1 2X4      0.107400
     19 C19         0.2910   -4.8650    7.2320 cp        1 2X4     -0.157300
     20 C20         1.2160   -5.5990    7.9880 ca        1 2X4     -0.079000
     21 C21         0.7390   -6.5200    8.9260 ca        1 2X4     -0.100900
     22 C22        -0.6570   -6.6810    9.0790 ca        1 2X4      0.414200
     23 N23        -1.5520   -5.9800    8.3620 nb        1 2X4     -0.647000
     24 C24        -1.0850   -5.0930    7.4660 ca        1 2X4      0.396200
     25 N25        -1.5080   -5.8090    1.0960 nz        1 2X4     -0.765600
     26 Cl1         1.8080   -7.4310    9.8630 cl        1 2X4     -0.046400
     27 H1         -0.1960    0.1040   -1.0580 h1        1 2X4      0.067200
     28 H2         -0.3940    0.9010    0.5870 h1        1 2X4      0.067200
     29 H3          3.1150    0.1110    1.2460 h1        1 2X4      0.079700
     30 H4          1.6490    0.9420    1.9860 h1        1 2X4      0.079700
     31 H5          2.1000   -2.1240    1.5800 h1        1 2X4      0.081700
     32 H6         -0.3780   -0.5920    2.6720 hc        1 2X4      0.092700
     33 H7         -1.5420   -1.3230    0.5920 hc        1 2X4      0.053700
     34 H8         -0.0250   -2.1200   -0.0130 hc        1 2X4      0.053700
     35 H9          3.1470   -1.5200    5.6960 ha        1 2X4      0.173000
     36 H10         2.3760   -3.1480    7.4380 ha        1 2X4      0.159000
     37 H11        -0.8230   -4.4310    4.8280 ha        1 2X4      0.123000
     38 H12        -2.1410   -2.8200    4.0960 h1        1 2X4      0.107700
     39 H13        -2.4070   -1.9170    2.5030 h1        1 2X4      0.107700
     40 H14         2.2980   -5.4550    7.8420 ha        1 2X4      0.159000
     41 H15        -1.0720   -7.3990    9.8120 h4        1 2X4      0.049100
     42 H16        -1.8530   -4.5200    6.9160 h4        1 2X4      0.019100
     43 H17        -2.2430   -5.6300    0.3970 hn        1 2X4      0.491133
     44 H18        -1.8550   -6.4890    1.7880 hn        1 2X4      0.491133
     45 H253       -0.6600   -6.1710    0.6370 hn        1 2X4      0.491133
@<TRIPOS>BOND
     1    1    2 1   
     2    1    6 1   
     3    1   27 1   
     4    1   28 1   
     5    2    3 1   
     6    3    4 1   
     7    3   29 1   
     8    3   30 1   
     9    4    5 1   
    10    4    7 1   
    11    4   31 1   
    12    5    6 1   
    13    5   10 1   
    14    5   32 1   
    15    6   33 1   
    16    6   34 1   
    17    7    8 1   
    18    8    9 ar  
    19    8   11 ar  
    20    9   10 1   
    21    9   14 ar  
    22   10   15 1   
    23   10   18 1   
    24   11   12 ar  
    25   11   35 1   
    26   12   13 ar  
    27   12   36 1   
    28   13   14 ar  
    29   13   19 1   
    30   14   37 1   
    31   15   16 2   
    32   16   17 1   
    33   16   25 1   
    34   17   18 1   
    35   18   38 1   
    36   18   39 1   
    37   19   20 ar  
    38   19   24 ar  
    39   20   21 ar  
    40   20   40 1   
    41   21   22 ar  
    42   21   26 1   
    43   22   23 ar  
    44   22   41 1   
    45   23   24 ar  
    46   24   42 1   
    47   25   43 1   
    48   25   44 1   
    49   25   45 1   
@<TRIPOS>SUBSTRUCTURE
     1 2X4         1 TEMP              0 ****  ****    0 ROOT
