@<TRIPOS>MOLECULE
2X4
   45    49     1     0     0
SMALL
bcc


@<TRIPOS>ATOM
      1 C1          0.0620    0.0410    0.0390 c3        1 2X4      0.121400
      2 O2          1.4810    0.1260    0.0790 os        1 2X4     -0.391600
      3 C3          2.0020    0.0750    1.3970 c3        1 2X4      0.125400
      4 C4          1.5960   -1.2390    2.0810 c3        1 2X4      0.109100
      5 C5          0.0770   -1.4150    2.0540 c3        1 2X4     -0.086700
      6 C6         -0.4160   -1.2830    0.6240 c3        1 2X4     -0.116400
      7 O7          2.0780   -1.1270    3.4290 os        1 2X4     -0.303900
      8 C8          1.5750   -2.0630    4.3040 ca        1 2X4      0.172100
      9 C9          0.4450   -2.8540    4.0510 ca        1 2X4     -0.190300
     10 C10        -0.3130   -2.7310    2.7550 c3        1 2X4      0.176500
     11 C11         2.2610   -2.1610    5.5330 ca        1 2X4     -0.141000
     12 C12         1.8290   -3.0690    6.4850 ca        1 2X4     -0.060000
     13 C13         0.7170   -3.8970    6.2360 cp        1 2X4     -0.050000
     14 C14         0.0400   -3.7810    5.0210 ca        1 2X4     -0.089000
     15 N15        -0.0580   -3.9380    1.9110 n2        1 2X4     -0.494900
     16 C16        -1.2000   -4.5560    1.7820 c2        1 2X4      0.588500
     17 O17        -2.3390   -3.9910    2.3820 os        1 2X4     -0.439400
     18 C18        -1.8700   -2.7570    3.0070 c3        1 2X4      0.107400
     19 C19         0.2790   -4.8670    7.2310 cp        1 2X4     -0.157300
     20 C20         1.2030   -5.5990    7.9910 ca        1 2X4     -0.079000
     21 C21         0.7250   -6.5230    8.9250 ca        1 2X4     -0.100900
     22 C22        -0.6720   -6.6880    9.0720 ca        1 2X4      0.414200
     23 N23        -1.5660   -5.9890    8.3510 nb        1 2X4     -0.647000
     24 C24        -1.0970   -5.0990    7.4590 ca        1 2X4      0.396200
     25 N25        -1.4900   -5.8080    1.0860 n4        1 2X4     -0.765600
     26 CL1         1.7920   -7.4320    9.8660 cl        1 2X4     -0.046400
     27 H1         -0.3920    0.9060    0.5910 h1        1 2X4      0.067200
     28 H2         -0.1850    0.1110   -1.0540 h1        1 2X4      0.067200
     29 H3          3.1160    0.1240    1.2650 h1        1 2X4      0.079700
     30 H4          1.6440    0.9510    2.0000 h1        1 2X4      0.079700
     31 H5          2.1060   -2.1130    1.5910 h1        1 2X4      0.081700
     32 H6         -0.3810   -0.5900    2.6740 hc        1 2X4      0.092700
     33 H7         -0.0120   -2.1130   -0.0110 hc        1 2X4      0.053700
     34 H8         -1.5340   -1.3210    0.5880 hc        1 2X4      0.053700
     35 H9          3.1320   -1.5120    5.7130 ha        1 2X4      0.173000
     36 H10         2.3580   -3.1440    7.4490 ha        1 2X4      0.159000
     37 H11        -0.8250   -4.4330    4.8230 ha        1 2X4      0.123000
     38 H12        -2.1440   -2.8250    4.0880 h1        1 2X4      0.107700
     39 H13        -2.4060   -1.9200    2.4950 h1        1 2X4      0.107700
     40 H14         2.2850   -5.4520    7.8500 ha        1 2X4      0.159000
     41 H15        -1.0880   -7.4090    9.8020 h4        1 2X4      0.049100
     42 H16        -1.8640   -4.5280    6.9070 h4        1 2X4      0.019100
     43 H17        -0.6400   -6.1660    0.6280 hn        1 2X4      0.491133
     44 H18        -1.8350   -6.4910    1.7760 hn        1 2X4      0.491133
     45 H253       -2.2240   -5.6300    0.3870 hn        1 2X4      0.491133
@<TRIPOS>BOND
     1    1    2 1   
     2    1    6 1   
     3    1   27 1   
     4    1   28 1   
     5    2    3 1   
     6    3    4 1   
     7    3   29 1   
     8    3   30 1   
     9    4    5 1   
    10    4    7 1   
    11    4   31 1   
    12    5    6 1   
    13    5   10 1   
    14    5   32 1   
    15    6   33 1   
    16    6   34 1   
    17    7    8 1   
    18    8    9 ar  
    19    8   11 ar  
    20    9   10 1   
    21    9   14 ar  
    22   10   15 1   
    23   10   18 1   
    24   11   12 ar  
    25   11   35 1   
    26   12   13 ar  
    27   12   36 1   
    28   13   14 ar  
    29   13   19 1   
    30   14   37 1   
    31   15   16 2   
    32   16   17 1   
    33   16   25 1   
    34   17   18 1   
    35   18   38 1   
    36   18   39 1   
    37   19   20 ar  
    38   19   24 ar  
    39   20   21 ar  
    40   20   40 1   
    41   21   22 ar  
    42   21   26 1   
    43   22   23 ar  
    44   22   41 1   
    45   23   24 ar  
    46   24   42 1   
    47   25   43 1   
    48   25   44 1   
    49   25   45 1   
@<TRIPOS>SUBSTRUCTURE
     1 2X4         1 TEMP              0 ****  ****    0 ROOT
