@<TRIPOS>MOLECULE
2X5
   45    49     1     0     0
SMALL
bcc


@<TRIPOS>ATOM
      1 C1          0.0480   -0.2360    0.1280 c3        1 2X5      0.121400
      2 O2          1.4660   -0.1630    0.0600 os        1 2X5     -0.391600
      3 C3          2.0710   -0.0310    1.3360 c3        1 2X5      0.127400
      4 C4          1.5940    1.2620    2.0120 c3        1 2X5      0.107100
      5 C5          0.0670    1.3120    2.0830 c3        1 2X5     -0.090700
      6 C6         -0.5400    1.0390    0.7200 c3        1 2X5     -0.114400
      7 O7          2.1670    1.2410    3.3260 os        1 2X5     -0.302900
      8 C8          1.6140    2.1330    4.2200 ca        1 2X5      0.160100
      9 C9          0.4210    2.8420    4.0000 ca        1 2X5     -0.186300
     10 C10        -0.3430    2.6630    2.7130 c3        1 2X5      0.176500
     11 C11         2.3360    2.2890    5.4200 ca        1 2X5     -0.140000
     12 C12         1.8650    3.1550    6.3930 ca        1 2X5     -0.060000
     13 C13         0.6810    3.8860    6.1870 cp        1 2X5     -0.052000
     14 C14        -0.0240    3.7240    4.9930 ca        1 2X5     -0.077000
     15 N15        -1.8210    2.7040    2.9230 n2        1 2X5     -0.495900
     16 C16        -2.2720    3.7260    2.2480 c2        1 2X5      0.591500
     17 O17        -1.3590    4.5050    1.5200 os        1 2X5     -0.435400
     18 C18        -0.0530    3.9000    1.7730 c3        1 2X5      0.103400
     19 C19         0.1880    4.8040    7.2070 cp        1 2X5     -0.153300
     20 C20         1.0590    5.6300    7.9320 ca        1 2X5     -0.078000
     21 C21         0.5220    6.4990    8.8870 ca        1 2X5     -0.098900
     22 C22        -0.8780    6.5170    9.0870 ca        1 2X5      0.414200
     23 N23        -1.7210    5.7260    8.4000 nb        1 2X5     -0.651000
     24 C24        -1.1940    4.8880    7.4890 ca        1 2X5      0.393200
     25 N25        -3.6460    4.2080    2.1280 n4        1 2X5     -0.766600
     26 CL1         1.5220    7.5150    9.7890 cl        1 2X5     -0.044400
     27 H1         -0.2700   -0.3660   -0.9420 h1        1 2X5      0.068200
     28 H2         -0.2630   -1.1300    0.7310 h1        1 2X5      0.068200
     29 H3          1.8360   -0.9150    1.9840 h1        1 2X5      0.081700
     30 H4          3.1730    0.0150    1.1260 h1        1 2X5      0.081700
     31 H5          1.9950    2.1590    1.4640 h1        1 2X5      0.065700
     32 H6         -0.2680    0.4960    2.7910 hc        1 2X5      0.104700
     33 H7         -1.6490    0.9130    0.8080 hc        1 2X5      0.051200
     34 H8         -0.3400    1.8880    0.0170 hc        1 2X5      0.051200
     35 H9          3.2630    1.7120    5.5650 ha        1 2X5      0.173000
     36 H10         2.4210    3.2710    7.3390 ha        1 2X5      0.160000
     37 H11        -0.9420    4.3110    4.8400 ha        1 2X5      0.120000
     38 H12         0.5620    4.6830    2.2810 h1        1 2X5      0.110200
     39 H13         0.3650    3.6200    0.7770 h1        1 2X5      0.110200
     40 H14         2.1440    5.5970    7.7480 ha        1 2X5      0.160000
     41 H15        -1.3390    7.1920    9.8320 h4        1 2X5      0.049100
     42 H16        -1.9150    4.2340    6.9680 h4        1 2X5      0.015100
     43 H17        -4.2880    3.5930    2.6490 hn        1 2X5      0.491467
     44 H18        -3.6890    5.1660    2.5050 hn        1 2X5      0.491467
     45 H253       -3.9010    4.2240    1.1300 hn        1 2X5      0.491467
@<TRIPOS>BOND
     1    1    2 1   
     2    1    6 1   
     3    1   27 1   
     4    1   28 1   
     5    2    3 1   
     6    3    4 1   
     7    3   29 1   
     8    3   30 1   
     9    4    5 1   
    10    4    7 1   
    11    4   31 1   
    12    5    6 1   
    13    5   10 1   
    14    5   32 1   
    15    6   33 1   
    16    6   34 1   
    17    7    8 1   
    18    8    9 ar  
    19    8   11 ar  
    20    9   10 1   
    21    9   14 ar  
    22   10   15 1   
    23   10   18 1   
    24   11   12 ar  
    25   11   35 1   
    26   12   13 ar  
    27   12   36 1   
    28   13   14 ar  
    29   13   19 1   
    30   14   37 1   
    31   15   16 2   
    32   16   17 1   
    33   16   25 1   
    34   17   18 1   
    35   18   38 1   
    36   18   39 1   
    37   19   20 ar  
    38   19   24 ar  
    39   20   21 ar  
    40   20   40 1   
    41   21   22 ar  
    42   21   26 1   
    43   22   23 ar  
    44   22   41 1   
    45   23   24 ar  
    46   24   42 1   
    47   25   43 1   
    48   25   44 1   
    49   25   45 1   
@<TRIPOS>SUBSTRUCTURE
     1 2X5         1 TEMP              0 ****  ****    0 ROOT
