@<TRIPOS>MOLECULE
2X5
   45    49     1     0     0
SMALL
bcc


@<TRIPOS>ATOM
      1 C1          0.0410   -0.2380    0.1290 c3        1 2X5      0.121400
      2 O2          1.4600   -0.1690    0.0620 os        1 2X5     -0.391600
      3 C3          2.0650   -0.0380    1.3390 c3        1 2X5      0.127400
      4 C4          1.5910    1.2570    2.0140 c3        1 2X5      0.107100
      5 C5          0.0640    1.3110    2.0840 c3        1 2X5     -0.090700
      6 C6         -0.5430    1.0390    0.7200 c3        1 2X5     -0.114400
      7 O7          2.1620    1.2350    3.3290 os        1 2X5     -0.302900
      8 C8          1.6110    2.1290    4.2210 ca        1 2X5      0.160100
      9 C9          0.4200    2.8410    4.0000 ca        1 2X5     -0.186300
     10 C10        -0.3430    2.6640    2.7130 c3        1 2X5      0.176500
     11 C11         2.3330    2.2830    5.4220 ca        1 2X5     -0.140000
     12 C12         1.8640    3.1510    6.3950 ca        1 2X5     -0.060000
     13 C13         0.6820    3.8850    6.1880 cp        1 2X5     -0.052000
     14 C14        -0.0230    3.7240    4.9930 ca        1 2X5     -0.077000
     15 N15        -1.8210    2.7080    2.9220 n2        1 2X5     -0.495900
     16 C16        -2.2680    3.7320    2.2460 c2        1 2X5      0.591500
     17 O17        -1.3530    4.5080    1.5180 os        1 2X5     -0.435400
     18 C18        -0.0490    3.8990    1.7730 c3        1 2X5      0.103400
     19 C19         0.1900    4.8050    7.2060 cp        1 2X5     -0.153300
     20 C20         1.0630    5.6290    7.9310 ca        1 2X5     -0.078000
     21 C21         0.5270    6.5000    8.8860 ca        1 2X5     -0.098900
     22 C22        -0.8730    6.5220    9.0850 ca        1 2X5      0.414200
     23 N23        -1.7170    5.7330    8.3980 nb        1 2X5     -0.651000
     24 C24        -1.1920    4.8930    7.4880 ca        1 2X5      0.393200
     25 N25        -3.6420    4.2180    2.1240 n4        1 2X5     -0.766600
     26 CL1         1.5300    7.5140    9.7880 cl        1 2X5     -0.044400
     27 H1         -0.2720   -1.1310    0.7330 h1        1 2X5      0.068200
     28 H2         -0.2760   -0.3670   -0.9400 h1        1 2X5      0.068200
     29 H3          3.1660    0.0050    1.1300 h1        1 2X5      0.081700
     30 H4          1.8260   -0.9210    1.9870 h1        1 2X5      0.081700
     31 H5          1.9950    2.1530    1.4660 h1        1 2X5      0.065700
     32 H6         -0.2750    0.4970    2.7920 hc        1 2X5      0.104700
     33 H7         -0.3400    1.8880    0.0170 hc        1 2X5      0.051200
     34 H8         -1.6530    0.9160    0.8070 hc        1 2X5      0.051200
     35 H9          3.2580    1.7040    5.5690 ha        1 2X5      0.173000
     36 H10         2.4190    3.2660    7.3400 ha        1 2X5      0.160000
     37 H11        -0.9390    4.3140    4.8390 ha        1 2X5      0.120000
     38 H12         0.5680    4.6810    2.2810 h1        1 2X5      0.110200
     39 H13         0.3690    3.6180    0.7770 h1        1 2X5      0.110200
     40 H14         2.1480    5.5930    7.7480 ha        1 2X5      0.160000
     41 H15        -1.3320    7.1990    9.8290 h4        1 2X5      0.049100
     42 H16        -1.9140    4.2400    6.9670 h4        1 2X5      0.015100
     43 H17        -3.6800    5.1790    2.4950 hn        1 2X5      0.491467
     44 H18        -3.8970    4.2280    1.1270 hn        1 2X5      0.491467
     45 H253       -4.2840    3.6090    2.6510 hn        1 2X5      0.491467
@<TRIPOS>BOND
     1    1    2 1   
     2    1    6 1   
     3    1   27 1   
     4    1   28 1   
     5    2    3 1   
     6    3    4 1   
     7    3   29 1   
     8    3   30 1   
     9    4    5 1   
    10    4    7 1   
    11    4   31 1   
    12    5    6 1   
    13    5   10 1   
    14    5   32 1   
    15    6   33 1   
    16    6   34 1   
    17    7    8 1   
    18    8    9 ar  
    19    8   11 ar  
    20    9   10 1   
    21    9   14 ar  
    22   10   15 1   
    23   10   18 1   
    24   11   12 ar  
    25   11   35 1   
    26   12   13 ar  
    27   12   36 1   
    28   13   14 ar  
    29   13   19 1   
    30   14   37 1   
    31   15   16 2   
    32   16   17 1   
    33   16   25 1   
    34   17   18 1   
    35   18   38 1   
    36   18   39 1   
    37   19   20 ar  
    38   19   24 ar  
    39   20   21 ar  
    40   20   40 1   
    41   21   22 ar  
    42   21   26 1   
    43   22   23 ar  
    44   22   41 1   
    45   23   24 ar  
    46   24   42 1   
    47   25   43 1   
    48   25   44 1   
    49   25   45 1   
@<TRIPOS>SUBSTRUCTURE
     1 2X5         1 TEMP              0 ****  ****    0 ROOT
