@<TRIPOS>MOLECULE
2X5
   45    49     1     0     0
SMALL
bcc


@<TRIPOS>ATOM
      1 C1          0.0450   -0.2280    0.1210 c3        1 2X5      0.121400
      2 O2          1.4640   -0.1610    0.0580 os        1 2X5     -0.391600
      3 C3          2.0660   -0.0340    1.3350 c3        1 2X5      0.127400
      4 C4          1.5920    1.2600    2.0130 c3        1 2X5      0.107100
      5 C5          0.0650    1.3150    2.0790 c3        1 2X5     -0.090700
      6 C6         -0.5390    1.0480    0.7140 c3        1 2X5     -0.114400
      7 O7          2.1610    1.2330    3.3290 os        1 2X5     -0.302900
      8 C8          1.6090    2.1260    4.2230 ca        1 2X5      0.160100
      9 C9          0.4200    2.8400    4.0010 ca        1 2X5     -0.186300
     10 C10        -0.3410    2.6670    2.7110 c3        1 2X5      0.176500
     11 C11         2.3280    2.2760    5.4260 ca        1 2X5     -0.140000
     12 C12         1.8580    3.1420    6.3990 ca        1 2X5     -0.060000
     13 C13         0.6770    3.8780    6.1910 cp        1 2X5     -0.052000
     14 C14        -0.0250    3.7210    4.9940 ca        1 2X5     -0.077000
     15 N15        -1.8200    2.7130    2.9170 n2        1 2X5     -0.495900
     16 C16        -2.2640    3.7400    2.2420 c2        1 2X5      0.591500
     17 O17        -1.3450    4.5160    1.5180 os        1 2X5     -0.435400
     18 C18        -0.0430    3.9050    1.7750 c3        1 2X5      0.103400
     19 C19         0.1850    4.7960    7.2110 cp        1 2X5     -0.153300
     20 C20         1.0570    5.6160    7.9410 ca        1 2X5     -0.078000
     21 C21         0.5200    6.4850    8.8960 ca        1 2X5     -0.098900
     22 C22        -0.8800    6.5090    9.0920 ca        1 2X5      0.414200
     23 N23        -1.7240    5.7230    8.4010 nb        1 2X5     -0.651000
     24 C24        -1.1980    4.8850    7.4900 ca        1 2X5      0.393200
     25 N25        -3.6360    4.2270    2.1190 nz        1 2X5     -0.766600
     26 Cl1         1.5220    7.4960    9.8040 cl        1 2X5     -0.044400
     27 H1         -0.2710   -1.1220    0.7210 h1        1 2X5      0.068200
     28 H2         -0.2690   -0.3540   -0.9500 h1        1 2X5      0.068200
     29 H3          3.1690    0.0080    1.1290 h1        1 2X5      0.081700
     30 H4          1.8250   -0.9190    1.9800 h1        1 2X5      0.081700
     31 H5          1.9990    2.1570    1.4690 h1        1 2X5      0.065700
     32 H6         -0.2760    0.5000    2.7840 hc        1 2X5      0.104700
     33 H7         -1.6490    0.9270    0.7980 hc        1 2X5      0.051200
     34 H8         -0.3330    1.8980    0.0140 hc        1 2X5      0.051200
     35 H9          3.2520    1.6950    5.5730 ha        1 2X5      0.173000
     36 H10         2.4110    3.2540    7.3470 ha        1 2X5      0.160000
     37 H11        -0.9400    4.3130    4.8400 ha        1 2X5      0.120000
     38 H12         0.5740    4.6850    2.2870 h1        1 2X5      0.110200
     39 H13         0.3770    3.6260    0.7790 h1        1 2X5      0.110200
     40 H14         2.1430    5.5790    7.7610 ha        1 2X5      0.160000
     41 H15        -1.3410    7.1850    9.8380 h4        1 2X5      0.049100
     42 H16        -1.9200    4.2350    6.9650 h4        1 2X5      0.015100
     43 H17        -4.2820    3.6140    2.6370 hn        1 2X5      0.491467
     44 H18        -3.8870    4.2460    1.1200 hn        1 2X5      0.491467
     45 H253       -3.6760    5.1850    2.4970 hn        1 2X5      0.491467
@<TRIPOS>BOND
     1    1    2 1   
     2    1    6 1   
     3    1   27 1   
     4    1   28 1   
     5    2    3 1   
     6    3    4 1   
     7    3   29 1   
     8    3   30 1   
     9    4    5 1   
    10    4    7 1   
    11    4   31 1   
    12    5    6 1   
    13    5   10 1   
    14    5   32 1   
    15    6   33 1   
    16    6   34 1   
    17    7    8 1   
    18    8    9 ar  
    19    8   11 ar  
    20    9   10 1   
    21    9   14 ar  
    22   10   15 1   
    23   10   18 1   
    24   11   12 ar  
    25   11   35 1   
    26   12   13 ar  
    27   12   36 1   
    28   13   14 ar  
    29   13   19 1   
    30   14   37 1   
    31   15   16 2   
    32   16   17 1   
    33   16   25 1   
    34   17   18 1   
    35   18   38 1   
    36   18   39 1   
    37   19   20 ar  
    38   19   24 ar  
    39   20   21 ar  
    40   20   40 1   
    41   21   22 ar  
    42   21   26 1   
    43   22   23 ar  
    44   22   41 1   
    45   23   24 ar  
    46   24   42 1   
    47   25   43 1   
    48   25   44 1   
    49   25   45 1   
@<TRIPOS>SUBSTRUCTURE
     1 2X5         1 TEMP              0 ****  ****    0 ROOT
