@<TRIPOS>MOLECULE
2X6
   55    52     1     0     0
SMALL
bcc


@<TRIPOS>ATOM
      1 C1      -1234.2200 -632.7170-1739.8240 c3        1 2X6     -0.387000
      2 C2       1722.8270 -219.8720  552.2710 c1        1 2X6      0.195000
      3 C3       1721.7280 -220.1730  552.6960 c1        1 2X6     -0.312000
      4 C11        93.9600 -222.5550  105.1770 c1        1 2X6     -0.066000
      5 C12        94.4990 -224.8940  101.5150 c2        1 2X6      0.049000
      6 C13      -314.9450  745.3740  518.9780 c2        1 2X6     -0.058000
      7 C14      -316.0480  745.6510  518.0290 c2        1 2X6      0.041000
      8 C15      -315.7910  746.0030  516.7420 c2        1 2X6     -0.300000
      9 C16      -314.5010  746.1620  516.1980 c1        1 2X6      0.134000
     10 C17      -313.3210  745.8640  517.1380 c3        1 2X6     -0.256000
     11 C18      -313.6460  746.0620  518.6110 c3        1 2X6     -0.154000
     12 C19      -311.4390  747.4730  517.4380 c1        1 2X6     -0.235000
     13 C20      -312.1550  746.5450  516.6640 c2        1 2X6      0.376000
     14 C10        93.6090 -222.6750  102.1530 c2        1 2X6      0.237000
     15 N2         94.3230 -221.4660  105.3960 n1        1 2X6     -0.033000
     16 N3         93.4570 -223.8030  104.9400 nh        1 2X6     -0.185000
     17 C8         93.9560 -224.5510  103.8440 c2        1 2X6      0.164000
     18 C7         94.3160 -225.8950  104.0560 c2        1 2X6     -0.320000
     19 C9         94.0300 -224.0260  102.5320 c2        1 2X6     -0.296000
     20 N6         94.8470 -226.1680  101.6770 n2        1 2X6     -0.216000
     21 C6         94.7590 -226.6890  102.9550 c2        1 2X6      0.187000
     22 C5       1719.2960 -219.7720  552.9410 c3        1 2X6     -0.310000
     23 C4       1720.5040 -220.5280  553.1830 c2        1 2X6      0.381000
     24 C       -1234.7980 -633.8510-1740.4910 c1        1 2X6      0.151000
     25 N       -1234.0530 -634.5880-1741.4930 n4        1 2X6     -0.122000
     26 N5       -310.8280  748.2550  518.0590 n1        1 2X6      0.229000
     27 H1      -1234.9230 -631.8380-1739.9790 hc        1 2X6      0.189000
     28 H2      -1233.1780 -632.4030-1740.0850 hc        1 2X6      0.189000
     29 H3       -391.1980 -447.6480  130.0720 ha        1 2X6      0.000000
     30 H4      -1234.2780 -632.9160-1738.7060 hc        1 2X6      0.189000
     31 H5       -391.6570 -447.8320  129.6100 ha        1 2X6      0.000000
     32 H6       1723.7990 -219.6080  551.8960 ha        1 2X6      0.286000
     33 H7         93.3490 -224.3360  105.7850 hn        1 2X6      0.232000
     34 H8       -317.0850  745.5510  518.4040 ha        1 2X6      0.180000
     35 H9       -316.6260  746.2000  516.0340 ha        1 2X6      0.210000
     36 H10      -313.2020  744.7400  516.8970 hc        1 2X6      0.251000
     37 H11      -312.7990  745.6730  519.2420 hc        1 2X6      0.144000
     38 H12      -311.7890  746.3480  515.6270 ha        1 2X6      0.223000
     39 H13        93.0570 -222.0890  102.9200 h4        1 2X6      0.105000
     40 H14        94.2690 -226.3380  105.0600 ha        1 2X6      0.144000
     41 H15        95.3600 -228.5740  102.3950 hn        1 2X6      0.228000
     42 H16      1718.8330 -219.4680  553.9300 hc        1 2X6      0.187667
     43 H17      1718.5230 -220.4390  552.4490 hc        1 2X6      0.187667
     44 H18      1719.4390 -218.8570  552.3110 hc        1 2X6      0.187667
     45 H19        94.8760 -228.4250  104.0140 hn        1 2X6      0.228000
     46 H20     -1234.6230 -634.5690-1742.3560 hn        1 2X6      0.263667
     47 H21     -1234.0240 -635.5710-1741.1720 hn        1 2X6      0.263667
     48 H23      -315.8930  744.2450  520.2680 hn        1 2X6      0.187000
     49 H24      -313.7600  747.1570  518.8420 hc        1 2X6      0.144000
     50 N1         95.1700 -227.9900  103.1750 nh        1 2X6     -0.350000
     51 O          93.8200 -222.2040  101.0310 o         1 2X6     -0.298000
     52 HN3     -1233.0980 -634.2780-1741.7150 hn        1 2X6      0.263667
     53 H121     1720.4370 -221.4550  553.8040 ha        1 2X6      0.197000
     54 H42        94.5830 -224.5020  100.4780 h4        1 2X6      0.189000
     55 N4       -315.0100  744.6560  520.0390 n2        1 2X6     -0.115000
@<TRIPOS>BOND
     1    1   24 1   
     2    1   27 1   
     3    1   28 1   
     4    1   30 1   
     5    2    3 1   
     6    2   32 1   
     7    3   23 1   
     8    4   15 1   
     9    4   16 1   
    10    5   19 1   
    11    5   20 1   
    12    5   54 1   
    13    6    7 1   
    14    6   11 1   
    15    6   55 1   
    16    7    8 1   
    17    7   34 1   
    18    8    9 1   
    19    8   35 1   
    20    9   10 1   
    21   10   11 1   
    22   10   13 1   
    23   10   36 1   
    24   11   37 1   
    25   11   49 1   
    26   12   13 1   
    27   12   26 1   
    28   13   38 1   
    29   14   19 1   
    30   14   39 1   
    31   14   51 1   
    32   16   17 1   
    33   16   33 1   
    34   17   18 1   
    35   17   19 1   
    36   18   21 1   
    37   18   40 1   
    38   20   21 1   
    39   21   50 1   
    40   22   23 1   
    41   22   42 1   
    42   22   43 1   
    43   22   44 1   
    44   23   53 1   
    45   24   25 1   
    46   25   46 1   
    47   25   47 1   
    48   25   52 1   
    49   29   31 1   
    50   41   50 1   
    51   45   50 1   
    52   48   55 1   
@<TRIPOS>SUBSTRUCTURE
     1 2X6         1 TEMP              0 ****  ****    0 ROOT
