@<TRIPOS>MOLECULE
2X6
   53    50     1     0     0
SMALL
bcc


@<TRIPOS>ATOM
      1 C1         -5.3510    2.8650    4.1250 c2        1 2X6     -0.350000
      2 C2         -6.4160    3.4890    4.6860 c2        1 2X6      0.080000
      3 C3          3.5550    2.5140    4.7360 c1        1 2X6     -0.225000
      4 C11        -1.7210   -4.4620    5.8530 c1        1 2X6     -0.061000
      5 C12        -0.4760   -0.5410    4.4040 c2        1 2X6      0.275000
      6 C13        -1.0110    1.7080    3.7290 ca        1 2X6     -0.018000
      7 C14        -0.6040    2.5710    4.7720 ca        1 2X6     -0.177000
      8 C15        -0.4530    3.9350    4.5430 ca        1 2X6     -0.113000
      9 C16        -0.6910    4.4740    3.2790 ca        1 2X6     -0.139000
     10 C17        -1.0800    3.6320    2.2380 ca        1 2X6     -0.113000
     11 C18        -1.2420    2.2660    2.4500 ca        1 2X6     -0.177000
     12 C19        -1.0160    9.1330    2.4580 c1        1 2X6     -0.378000
     13 C20        -0.7410    7.8800    2.7130 c1        1 2X6      0.188000
     14 C10        -2.1300   -2.4110    3.9760 c2        1 2X6      0.294000
     15 N2         -2.8210   -4.7940    6.0650 n1        1 2X6     -0.006000
     16 N3         -0.4280   -4.1280    5.5960 nu        1 2X6     -0.210000
     17 C8         -0.0510   -2.8170    5.2770 c2        1 2X6      0.270000
     18 C7          1.2660   -2.4270    5.6400 c2        1 2X6     -0.395000
     19 C9         -0.8960   -1.9330    4.5880 c2        1 2X6     -0.365000
     20 N6          0.8750   -0.2280    4.7180 na        1 2X6     -0.308000
     21 C6          1.7390   -1.1440    5.3080 c2        1 2X6      0.303000
     22 C5          3.9970   -1.6740    6.1160 c3        1 2X6     -0.077000
     23 C4          3.2520    2.0080    3.6950 c1        1 2X6     -0.225000
     24 C          -5.3270    1.4440    4.1550 c1        1 2X6      0.065000
     25 N          -4.2280    0.7280    3.5820 nz        1 2X6     -0.100000
     26 N5         -1.4290   10.2910    2.2210 n2        1 2X6      0.023000
     27 H1         -5.1220   -1.5690    1.8170 ha        1 2X6      0.004000
     28 H2         -4.9480   -2.0440    2.2690 ha        1 2X6      0.004000
     29 H3          3.8280    2.9790    5.6520 ha        1 2X6      0.230000
     30 H4         -4.5380    3.4640    3.6690 ha        1 2X6      0.146000
     31 H5         -7.2450    2.9280    5.1520 ha        1 2X6      0.154000
     32 H6         -6.5020    4.5880    4.7010 ha        1 2X6      0.154000
     33 H7          0.2550   -4.7020    6.0530 hn        1 2X6      0.264000
     34 H8         -0.4210    2.1690    5.7810 ha        1 2X6      0.136500
     35 H9         -0.1390    4.5940    5.3680 ha        1 2X6      0.143000
     36 H10        -0.5690    5.5590    3.1030 ha        1 2X6      0.177000
     37 H11        -0.7310   11.0020    2.0790 hn        1 2X6      0.172000
     38 H12        -1.2520    4.0490    1.2330 ha        1 2X6      0.143000
     39 H13        -2.0930   -3.4690    3.6150 h4        1 2X6      0.110000
     40 H14         1.9260   -3.1250    6.1730 ha        1 2X6      0.165000
     41 H15         3.3570    0.1430    5.2980 hn        1 2X6      0.253000
     42 H16         4.1040   -2.5770    5.4550 h1        1 2X6      0.098333
     43 H17         3.0040    1.5880    2.7510 ha        1 2X6      0.230000
     44 H18         3.6890   -2.0110    7.1430 h1        1 2X6      0.098333
     45 H19         4.9880   -1.1520    6.1850 h1        1 2X6      0.098333
     46 H20        -3.7310    0.2220    4.3510 hn        1 2X6      0.274333
     47 H21        -4.6120   -0.0290    2.9850 hn        1 2X6      0.274333
     48 H23         1.2060    0.6940    4.4990 hn        1 2X6      0.259000
     49 H24        -1.5220    1.6160    1.6070 ha        1 2X6      0.136500
     50 N1          3.0350   -0.7570    5.5830 nu        1 2X6     -0.334000
     51 O          -3.1690   -1.7590    3.7990 o         1 2X6     -0.388000
     52 HN3        -3.5310    1.2640    3.0490 hn        1 2X6      0.274333
     53 N4         -1.3240    0.3540    3.9430 n2        1 2X6     -0.336000
@<TRIPOS>BOND
     1    1    2 1   
     2    1   24 1   
     3    1   30 1   
     4    2   31 1   
     5    2   32 1   
     6    3   23 1   
     7    3   29 1   
     8    4   15 1   
     9    4   16 1   
    10    5   19 1   
    11    5   20 1   
    12    5   53 1   
    13    6    7 1   
    14    6   11 1   
    15    6   53 1   
    16    7    8 1   
    17    7   34 1   
    18    8    9 1   
    19    8   35 1   
    20    9   10 1   
    21    9   36 1   
    22   10   11 1   
    23   10   38 1   
    24   11   49 1   
    25   12   13 1   
    26   12   26 1   
    27   14   19 1   
    28   14   39 1   
    29   14   51 1   
    30   16   17 1   
    31   16   33 1   
    32   17   18 1   
    33   17   19 1   
    34   18   21 1   
    35   18   40 1   
    36   20   21 1   
    37   20   48 1   
    38   21   50 1   
    39   22   42 1   
    40   22   44 1   
    41   22   45 1   
    42   22   50 1   
    43   23   43 1   
    44   24   25 1   
    45   25   46 1   
    46   25   47 1   
    47   25   52 1   
    48   26   37 1   
    49   27   28 1   
    50   41   50 1   
@<TRIPOS>SUBSTRUCTURE
     1 2X6         1 TEMP              0 ****  ****    0 ROOT
