@<TRIPOS>MOLECULE
2X7
   14     9     1     0     0
SMALL
bcc


@<TRIPOS>ATOM
      1 O1         -2.4290   -0.9490   -0.2120 o         1 2X7     -0.460500
      2 C1         -1.2140   -0.9490   -0.2120 c1        1 2X7      0.810000
      3 C2         -0.3570   -0.9490    1.0350 c1        1 2X7      0.319800
      4 N          -0.2010   -1.9770    1.8260 n1        1 2X7     -0.493800
      5 C3          0.2950    0.4000    1.2450 c1        1 2X7     -0.066000
      6 C4          1.1850    0.9850    0.1700 c1        1 2X7     -0.066000
      7 C5          0.6130    1.3070   -1.1930 c1        1 2X7     -0.066000
      8 C6         -0.2470    0.2900   -1.9120 c1        1 2X7     -0.066000
      9 O2         -0.4180   -0.9940   -1.3690 o         1 2X7     -0.460500
     10 H1          0.3310   -1.9090    2.5640 DU        1 2X7      0.160000
     11 H2          0.1560    0.8850    2.0810 ha        1 2X7      0.097250
     12 H3          2.1210    1.1820    0.3650 ha        1 2X7      0.097250
     13 H4          0.8180    2.1610   -1.6190 ha        1 2X7      0.097250
     14 H5         -0.6540    0.5160   -2.7700 ha        1 2X7      0.097250
@<TRIPOS>BOND
     1    1    2 2   
     2    2    9 2   
     3    3    4 3   
     4    5    6 3   
     5    5   11 1   
     6    6   12 1   
     7    7    8 3   
     8    7   13 1   
     9    8   14 1   
@<TRIPOS>SUBSTRUCTURE
     1 2X7         1 TEMP              0 ****  ****    0 ROOT
