@<TRIPOS>MOLECULE
2X7
   14    14     1     0     0
SMALL
bcc


@<TRIPOS>ATOM
      1 O1         -0.1890    0.0180    0.1510 o         1 2X7     -0.545500
      2 C1          1.0250    0.1910    0.0900 c         1 2X7      0.574300
      3 C2          2.0100   -0.0760    1.1960 cc        1 2X7      0.448600
      4 N           2.1880   -1.2230    1.7390 n2        1 2X7     -0.700100
      5 C3          2.7100    1.1360    1.6500 cc        1 2X7     -0.234600
      6 C4          3.3910    1.9330    0.8140 cd        1 2X7     -0.082000
      7 C5          3.5330    1.7250   -0.6030 cd        1 2X7     -0.222000
      8 C6          2.6810    1.0900   -1.4260 cc        1 2X7      0.057100
      9 O2          1.4220    0.6100   -1.1630 os        1 2X7     -0.333200
     10 H1          1.6390   -1.9760    1.3790 hn        1 2X7      0.408400
     11 H2          2.6540    1.3410    2.7310 ha        1 2X7      0.161000
     12 H3          3.9200    2.8170    1.2160 ha        1 2X7      0.144000
     13 H4          4.4570    2.1380   -1.0490 ha        1 2X7      0.151000
     14 H5          2.8630    0.9630   -2.5110 h4        1 2X7      0.172000
@<TRIPOS>BOND
     1    1    2 2   
     2    2    3 1   
     3    2    9 1   
     4    3    4 2   
     5    3    5 1   
     6    4   10 1   
     7    5    6 2   
     8    5   11 1   
     9    6    7 1   
    10    6   12 1   
    11    7    8 2   
    12    7   13 1   
    13    8    9 1   
    14    8   14 1   
@<TRIPOS>SUBSTRUCTURE
     1 2X7         1 TEMP              0 ****  ****    0 ROOT
