@<TRIPOS>MOLECULE
2X7
   14    14     1     0     0
SMALL
bcc


@<TRIPOS>ATOM
      1 O1         -0.1960    0.0340    0.2000 o         1 2X7     -0.545500
      2 C1          1.0200    0.1940    0.1240 c         1 2X7      0.574300
      3 C2          2.0110   -0.0360    1.2320 cc        1 2X7      0.448600
      4 N           2.1850   -1.1620    1.8190 n2        1 2X7     -0.700100
      5 C3          2.7230    1.1870    1.6320 cc        1 2X7     -0.234600
      6 C4          3.4030    1.9450    0.7600 cd        1 2X7     -0.082000
      7 C5          3.5340    1.6800   -0.6480 cd        1 2X7     -0.222000
      8 C6          2.6710    1.0190   -1.4400 cc        1 2X7      0.057100
      9 O2          1.4100    0.5590   -1.1480 os        1 2X7     -0.333200
     10 H1          1.6260   -1.9250    1.4930 hn        1 2X7      0.408400
     11 H2          2.6760    1.4350    2.7050 ha        1 2X7      0.161000
     12 H3          3.9420    2.8400    1.1220 ha        1 2X7      0.144000
     13 H4          4.4570    2.0680   -1.1170 ha        1 2X7      0.151000
     14 H5          2.8430    0.8470   -2.5200 h4        1 2X7      0.172000
@<TRIPOS>BOND
     1    1    2 2   
     2    2    3 1   
     3    2    9 1   
     4    3    4 2   
     5    3    5 1   
     6    4   10 1   
     7    5    6 2   
     8    5   11 1   
     9    6    7 1   
    10    6   12 1   
    11    7    8 2   
    12    7   13 1   
    13    8    9 1   
    14    8   14 1   
@<TRIPOS>SUBSTRUCTURE
     1 2X7         1 TEMP              0 ****  ****    0 ROOT
