@<TRIPOS>MOLECULE
2X7
   14    14     1     0     0
SMALL
bcc


@<TRIPOS>ATOM
      1 O1         -1.6640   -1.2890   -0.9990 o         1 2X7     -0.545500
      2 C1         -0.7820   -0.6980   -0.3810 c         1 2X7      0.574300
      3 C2         -0.8750    0.7000    0.1670 cc        1 2X7      0.448600
      4 N          -1.7470    1.0790    1.0260 n2        1 2X7     -0.700100
      5 C3          0.0990    1.6220   -0.4360 cc        1 2X7     -0.234600
      6 C4          1.4180    1.3780   -0.4420 cd        1 2X7     -0.082000
      7 C5          2.0520    0.2170    0.1250 cd        1 2X7     -0.222000
      8 C6          1.5230   -1.0090    0.2800 cc        1 2X7      0.057100
      9 O2          0.3230   -1.4970   -0.1750 os        1 2X7     -0.333200
     10 H1         -2.3850    0.3820    1.3490 hn        1 2X7      0.408400
     11 H2         -0.3230    2.5420   -0.8730 ha        1 2X7      0.161000
     12 H3          2.1060    2.1200   -0.8870 ha        1 2X7      0.144000
     13 H4          3.0910    0.3690    0.4700 ha        1 2X7      0.151000
     14 H5          2.0730   -1.8570    0.7340 h4        1 2X7      0.172000
@<TRIPOS>BOND
     1    1    2 2   
     2    2    3 1   
     3    2    9 1   
     4    3    4 2   
     5    3    5 1   
     6    4   10 1   
     7    5    6 2   
     8    5   11 1   
     9    6    7 1   
    10    6   12 1   
    11    7    8 2   
    12    7   13 1   
    13    8    9 1   
    14    8   14 1   
@<TRIPOS>SUBSTRUCTURE
     1 2X7         1 TEMP              0 ****  ****    0 ROOT
