@<TRIPOS>MOLECULE
2X9
   37    31     1     0     0
SMALL
bcc


@<TRIPOS>ATOM
      1 C1         -4.3030   -1.3860   -0.6430 c3        1 2X9     -0.196000
      2 C2         -2.7910   -1.4480   -0.6460 c1        1 2X9      0.009000
      3 C3         -0.0520   -1.4610   -0.6320 c1        1 2X9     -0.187000
      4 F4          4.3890    4.9490    2.4060 f         1 2X9     -0.096000
      5 C5         -2.0970   -1.4660    0.5540 c1        1 2X9     -0.045000
      6 C6         -0.7310   -1.4720    0.5510 c1        1 2X9     -0.097000
      7 C7         -0.7490   -1.4440   -1.8300 c1        1 2X9     -0.023000
      8 N8         -2.1120   -1.4380   -1.8270 n1        1 2X9     -0.162000
      9 C9         -2.8510   -1.5050    1.8650 c2        1 2X9     -0.221000
     10 C11         0.0030   -1.4640   -3.1430 c3        1 2X9     -0.165000
     11 C12         1.4290   -1.2460   -0.4070 c3        1 2X9     -0.060000
     12 F13         4.0220    2.4160    2.9580 f         1 2X9     -0.075000
     13 C20        -3.0040   -2.9410    2.3160 c1        1 2X9      0.343000
     14 O23        -3.9930   -3.2780    3.0180 os        1 2X9     -0.570000
     15 O24        -2.1280   -3.7930    2.0120 o         1 2X9     -0.557000
     16 C28         1.7070    0.2350   -0.2660 c2        1 2X9     -0.209000
     17 N29         2.4260    0.5360    0.9270 n2        1 2X9     -0.110000
     18 S30         1.7100    1.4950   -1.1490 ss        1 2X9      0.559000
     19 C32         2.4900    2.5890   -0.3940 c1        1 2X9     -0.392000
     20 C33         3.9070    4.1610    1.4370 c2        1 2X9      0.064000
     21 C34         2.7690    3.9150   -0.6980 c1        1 2X9      0.149000
     22 C35         2.9260    2.0370    0.8450 c1        1 2X9     -0.044000
     23 C36         3.6270    2.8260    1.7460 c1        1 2X9      0.093000
     24 C37         3.4760    4.7080    0.2110 c2        1 2X9     -0.192000
     25 F38         2.3670    4.2500   -1.9310 f         1 2X9     -0.093000
     26 H1         -4.5950   -0.5620   -0.2010 hc        1 2X9      0.105667
     27 H2         -4.6320   -1.3960   -1.5660 hc        1 2X9      0.105667
     28 H3         -4.6610   -2.1610   -0.1600 hc        1 2X9      0.105667
     29 H4         -0.2410   -1.4840    1.3960 ha        1 2X9      0.146000
     30 H5         -2.3560   -1.0010    2.5410 ha        1 2X9      0.081000
     31 H6         -3.7360   -1.1050    1.7440 ha        1 2X9      0.081000
     32 H7          0.7310   -2.1170   -3.0920 hc        1 2X9      0.081333
     33 H8          0.3750   -0.5740   -3.3200 hc        1 2X9      0.081333
     34 H9         -0.6090   -1.7130   -3.8670 hc        1 2X9      0.081333
     35 H10         1.9290   -1.6010   -1.1690 hc        1 2X9      0.122500
     36 H11         1.7050   -1.7090    0.4090 hc        1 2X9      0.122500
     37 H13         3.6540    5.6440    0.0050 ha        1 2X9      0.164000
@<TRIPOS>BOND
     1    1    2 1   
     2    1   26 1   
     3    1   27 1   
     4    1   28 1   
     5    2    8 1   
     6    3    7 1   
     7    3   11 1   
     8    4   20 1   
     9    5    6 1   
    10    6   29 1   
    11    7   10 1   
    12    9   13 1   
    13    9   30 1   
    14    9   31 1   
    15   10   32 1   
    16   10   33 1   
    17   10   34 1   
    18   11   16 1   
    19   11   35 1   
    20   11   36 1   
    21   12   23 1   
    22   13   15 1   
    23   16   17 1   
    24   16   18 1   
    25   17   22 1   
    26   18   19 1   
    27   19   22 1   
    28   20   23 1   
    29   20   24 1   
    30   21   24 1   
    31   24   37 1   
@<TRIPOS>SUBSTRUCTURE
     1 2X9         1 TEMP              0 ****  ****    0 ROOT
