@<TRIPOS>MOLECULE
2X9
   37    39     1     0     0
SMALL
bcc


@<TRIPOS>ATOM
      1 C1          4.7910    1.6290   -1.8570 c3        1 2X9     -0.172400
      2 C2          3.6540    1.2610   -0.9590 ca        1 2X9      0.431600
      3 C3          1.6090    0.5700    0.7680 ca        1 2X9     -0.259600
      4 F4         -6.5730   -0.8220    0.4180 f         1 2X9     -0.130900
      5 C5          3.4220   -0.1200   -0.6910 ca        1 2X9     -0.117600
      6 C6          2.3940   -0.4420    0.2000 ca        1 2X9     -0.097000
      7 C7          1.8960    1.9130    0.4250 ca        1 2X9      0.399600
      8 N8          2.9000    2.2450   -0.4210 nb        1 2X9     -0.688000
      9 C9          4.2350   -1.1870   -1.3060 c3        1 2X9     -0.185100
     10 C11         1.0840    3.0160    1.0270 c3        1 2X9     -0.141400
     11 C12         0.5520    0.2180    1.7520 c3        1 2X9     -0.049400
     12 F13        -4.7550   -0.3510    2.4440 f         1 2X9     -0.109900
     13 C20         5.5320   -1.4730   -0.4940 c         1 2X9      0.923600
     14 O23         5.4710   -2.3570    0.4010 o         1 2X9     -0.828800
     15 O24         6.5670   -0.8230   -0.8070 o         1 2X9     -0.828800
     16 C28        -0.7700   -0.0020    1.0990 cc        1 2X9      0.378200
     17 N29        -1.9290   -0.0730    1.7490 nd        1 2X9     -0.537100
     18 S30        -0.8630   -0.2110   -0.6170 ss        1 2X9      0.107900
     19 C32        -2.5310   -0.4180   -0.5320 ca        1 2X9     -0.165100
     20 C33        -5.2570   -0.6880    0.1300 ca        1 2X9      0.098900
     21 C34        -3.4880   -0.6590   -1.5410 ca        1 2X9      0.183900
     22 C35        -2.9580   -0.3120    0.8340 ca        1 2X9      0.095400
     23 C36        -4.3330   -0.4480    1.1670 ca        1 2X9      0.127900
     24 C37        -4.8360   -0.7930   -1.2140 ca        1 2X9     -0.192000
     25 F38        -3.1060   -0.7620   -2.8360 f         1 2X9     -0.127900
     26 H1          5.6990    1.0360   -1.5490 hc        1 2X9      0.066367
     27 H2          4.5300    1.3600   -2.9110 hc        1 2X9      0.066367
     28 H3          5.0300    2.7190   -1.8160 hc        1 2X9      0.066367
     29 H4          2.2270   -1.4960    0.4720 ha        1 2X9      0.146000
     30 H5          3.6480   -2.1400   -1.3530 hc        1 2X9      0.041700
     31 H6          4.5340   -0.9020   -2.3470 hc        1 2X9      0.041700
     32 H7          1.3450    3.1200    2.1100 hc        1 2X9      0.042033
     33 H8          1.2690    3.9980    0.5260 hc        1 2X9      0.042033
     34 H9         -0.0040    2.7750    0.9430 hc        1 2X9      0.042033
     35 H10         0.8370   -0.7290    2.2940 hc        1 2X9      0.083200
     36 H11         0.4580    1.0260    2.5310 hc        1 2X9      0.083200
     37 H13        -5.5820   -0.9820   -1.9990 ha        1 2X9      0.164000
@<TRIPOS>BOND
     1    1    2 1   
     2    1   26 1   
     3    1   27 1   
     4    1   28 1   
     5    2    5 ar  
     6    2    8 ar  
     7    3    6 ar  
     8    3    7 ar  
     9    3   11 1   
    10    4   20 1   
    11    5    6 ar  
    12    5    9 1   
    13    6   29 1   
    14    7    8 ar  
    15    7   10 1   
    16    9   13 1   
    17    9   30 1   
    18    9   31 1   
    19   10   32 1   
    20   10   33 1   
    21   10   34 1   
    22   11   16 1   
    23   11   35 1   
    24   11   36 1   
    25   12   23 1   
    26   13   14 1   
    27   13   15 1   
    28   16   17 2   
    29   16   18 1   
    30   17   22 1   
    31   18   19 1   
    32   19   21 ar  
    33   19   22 ar  
    34   20   23 ar  
    35   20   24 ar  
    36   21   24 ar  
    37   21   25 1   
    38   22   23 ar  
    39   24   37 1   
@<TRIPOS>SUBSTRUCTURE
     1 2X9         1 TEMP              0 ****  ****    0 ROOT
