@<TRIPOS>MOLECULE
2X9
   37    39     1     0     0
SMALL
bcc


@<TRIPOS>ATOM
      1 C1          0.1440   -0.6000   -0.7540 c3        1 2X9     -0.172400
      2 C2          1.5730   -0.3270   -0.4100 ca        1 2X9      0.431600
      3 C3          4.2200    0.0970    0.2640 ca        1 2X9     -0.259600
      4 F4          9.7900    6.2490   -0.1220 f         1 2X9     -0.130900
      5 C5          1.8840    0.0810    0.9210 ca        1 2X9     -0.117600
      6 C6          3.2310    0.2700    1.2410 ca        1 2X9     -0.097000
      7 C7          3.8170   -0.2850   -1.0380 ca        1 2X9      0.399600
      8 N8          2.5190   -0.4920   -1.3610 nb        1 2X9     -0.688000
      9 C9          0.8400    0.2840    1.9440 c3        1 2X9     -0.185100
     10 C11         4.8530   -0.4910   -2.0980 c3        1 2X9     -0.141400
     11 C12         5.6530    0.2530    0.6300 c3        1 2X9     -0.049400
     12 F13         9.9170    3.5200    0.2870 f         1 2X9     -0.109900
     13 C20         0.4700   -1.0420    2.6710 c         1 2X9      0.923600
     14 O23         1.1110   -1.3260    3.7170 o         1 2X9     -0.828800
     15 O24        -0.4690   -1.7280    2.1820 o         1 2X9     -0.828800
     16 C28         6.1370    1.6480    0.4160 cc        1 2X9      0.378200
     17 N29         7.4170    2.0080    0.4130 nd        1 2X9     -0.537100
     18 S30         4.9990    2.9300    0.1770 ss        1 2X9      0.107900
     19 C32         6.2460    4.0560    0.0630 ca        1 2X9     -0.165100
     20 C33         8.6500    5.5200   -0.0590 ca        1 2X9      0.098900
     21 C34         6.2190    5.4510   -0.1450 ca        1 2X9      0.183900
     22 C35         7.5080    3.3890    0.2120 ca        1 2X9      0.095400
     23 C36         8.7200    4.1280    0.1500 ca        1 2X9      0.127900
     24 C37         7.4080    6.1750   -0.2050 ca        1 2X9     -0.192000
     25 F38         5.0390    6.0990   -0.2880 f         1 2X9     -0.127900
     26 H1         -0.3080   -1.2300    0.0640 hc        1 2X9      0.066367
     27 H2          0.0360   -1.1290   -1.7310 hc        1 2X9      0.066367
     28 H3         -0.4120    0.3680   -0.8080 hc        1 2X9      0.066367
     29 H4          3.5080    0.5300    2.2750 ha        1 2X9      0.146000
     30 H5         -0.0910    0.6960    1.4780 hc        1 2X9      0.041700
     31 H6          1.1980    1.0080    2.7210 hc        1 2X9      0.041700
     32 H7          4.4000   -0.5860   -3.1160 hc        1 2X9      0.042033
     33 H8          5.5650    0.3700   -2.1050 hc        1 2X9      0.042033
     34 H9          5.4240   -1.4280   -1.8800 hc        1 2X9      0.042033
     35 H10         5.7980   -0.0060    1.7180 hc        1 2X9      0.083200
     36 H11         6.2890   -0.4620    0.0360 hc        1 2X9      0.083200
     37 H13         7.3890    7.2630   -0.3660 ha        1 2X9      0.164000
@<TRIPOS>BOND
     1    1    2 1   
     2    1   26 1   
     3    1   27 1   
     4    1   28 1   
     5    2    5 ar  
     6    2    8 ar  
     7    3    6 ar  
     8    3    7 ar  
     9    3   11 1   
    10    4   20 1   
    11    5    6 ar  
    12    5    9 1   
    13    6   29 1   
    14    7    8 ar  
    15    7   10 1   
    16    9   13 1   
    17    9   30 1   
    18    9   31 1   
    19   10   32 1   
    20   10   33 1   
    21   10   34 1   
    22   11   16 1   
    23   11   35 1   
    24   11   36 1   
    25   12   23 1   
    26   13   14 1   
    27   13   15 1   
    28   16   17 2   
    29   16   18 1   
    30   17   22 1   
    31   18   19 1   
    32   19   21 ar  
    33   19   22 ar  
    34   20   23 ar  
    35   20   24 ar  
    36   21   24 ar  
    37   21   25 1   
    38   22   23 ar  
    39   24   37 1   
@<TRIPOS>SUBSTRUCTURE
     1 2X9         1 TEMP              0 ****  ****    0 ROOT
