@<TRIPOS>MOLECULE
2X9
   37    39     1     0     0
SMALL
bcc


@<TRIPOS>ATOM
      1 C1          0.1510   -0.6080   -0.7640 c3        1 2X9     -0.172400
      2 C2          1.5800   -0.3320   -0.4220 ca        1 2X9      0.431600
      3 C3          4.2270    0.0960    0.2460 ca        1 2X9     -0.259600
      4 F4          9.7630    6.2820   -0.0790 f         1 2X9     -0.130900
      5 C5          1.8940    0.0590    0.9130 ca        1 2X9     -0.117600
      6 C6          3.2420    0.2510    1.2300 ca        1 2X9     -0.097000
      7 C7          3.8210   -0.2710   -1.0580 ca        1 2X9      0.399600
      8 N8          2.5220   -0.4800   -1.3790 nb        1 2X9     -0.688000
      9 C9          0.8530    0.2440    1.9430 c3        1 2X9     -0.185100
     10 C11         4.8530   -0.4580   -2.1260 c3        1 2X9     -0.141400
     11 C12         5.6610    0.2550    0.6090 c3        1 2X9     -0.049400
     12 F13         9.9060    3.5490    0.2930 f         1 2X9     -0.109900
     13 C20         0.4930   -1.0940    2.6540 c         1 2X9      0.923600
     14 O23         1.1400   -1.3890    3.6940 o         1 2X9     -0.828800
     15 O24        -0.4450   -1.7780    2.1600 o         1 2X9     -0.828800
     16 C28         6.1370    1.6540    0.4120 cc        1 2X9      0.378200
     17 N29         7.4150    2.0220    0.4090 nd        1 2X9     -0.537100
     18 S30         4.9910    2.9340    0.1940 ss        1 2X9      0.107900
     19 C32         6.2310    4.0670    0.0900 ca        1 2X9     -0.165100
     20 C33         8.6270    5.5460   -0.0210 ca        1 2X9      0.098900
     21 C34         6.1970    5.4650   -0.0990 ca        1 2X9      0.183900
     22 C35         7.4970    3.4050    0.2260 ca        1 2X9      0.095400
     23 C36         8.7060    4.1520    0.1690 ca        1 2X9      0.127900
     24 C37         7.3810    6.1970   -0.1540 ca        1 2X9     -0.192000
     25 F38         5.0120    6.1090   -0.2290 f         1 2X9     -0.127900
     26 H1         -0.2950   -1.2510    0.0480 hc        1 2X9      0.066367
     27 H2          0.0410   -1.1240   -1.7470 hc        1 2X9      0.066367
     28 H3         -0.4110    0.3580   -0.8020 hc        1 2X9      0.066367
     29 H4          3.5220    0.4990    2.2660 ha        1 2X9      0.146000
     30 H5         -0.0820    0.6570    1.4860 hc        1 2X9      0.041700
     31 H6          1.2110    0.9590    2.7280 hc        1 2X9      0.041700
     32 H7          4.3970   -0.5410   -3.1420 hc        1 2X9      0.042033
     33 H8          5.5610    0.4070   -2.1240 hc        1 2X9      0.042033
     34 H9          5.4300   -1.3940   -1.9220 hc        1 2X9      0.042033
     35 H10         5.8120   -0.0180    1.6920 hc        1 2X9      0.083200
     36 H11         6.2980   -0.4490    0.0030 hc        1 2X9      0.083200
     37 H13         7.3560    7.2860   -0.3000 ha        1 2X9      0.164000
@<TRIPOS>BOND
     1    1    2 1   
     2    1   26 1   
     3    1   27 1   
     4    1   28 1   
     5    2    5 ar  
     6    2    8 ar  
     7    3    6 ar  
     8    3    7 ar  
     9    3   11 1   
    10    4   20 1   
    11    5    6 ar  
    12    5    9 1   
    13    6   29 1   
    14    7    8 ar  
    15    7   10 1   
    16    9   13 1   
    17    9   30 1   
    18    9   31 1   
    19   10   32 1   
    20   10   33 1   
    21   10   34 1   
    22   11   16 1   
    23   11   35 1   
    24   11   36 1   
    25   12   23 1   
    26   13   14 1   
    27   13   15 1   
    28   16   17 2   
    29   16   18 1   
    30   17   22 1   
    31   18   19 1   
    32   19   21 ar  
    33   19   22 ar  
    34   20   23 ar  
    35   20   24 ar  
    36   21   24 ar  
    37   21   25 1   
    38   22   23 ar  
    39   24   37 1   
@<TRIPOS>SUBSTRUCTURE
     1 2X9         1 TEMP              0 ****  ****    0 ROOT
