@<TRIPOS>MOLECULE
2XA
   46    48     1     0     0
SMALL
bcc


@<TRIPOS>ATOM
      1 N           3.4910    1.6230   -2.4960 n3        1 2XA     -0.883800
      2 CA          2.8490    1.5380   -1.1910 c3        1 2XA      0.016500
      3 CB          1.8510    0.3910   -1.0860 c3        1 2XA      0.022700
      4 C           3.8480    1.4530    0.0160 c         1 2XA      0.889600
      5 OXT         3.3510    1.2770    1.1650 o         1 2XA     -0.836300
      6 O           5.0780    1.5930   -0.2210 o         1 2XA     -0.836300
      7 SG          0.2150    0.9940   -1.4460 ss        1 2XA     -0.353200
      8 CAM        -0.8820   -2.0590   -0.8020 ca        1 2XA     -0.103500
      9 CAG        -0.5450   -3.3880   -0.5680 ca        1 2XA     -0.131500
     10 CAD         0.1370   -3.7290    0.6040 ca        1 2XA      0.014400
     11 CAH         0.4950   -2.7440    1.5250 ca        1 2XA     -0.131500
     12 CAN         0.1480   -1.4150    1.2820 ca        1 2XA     -0.103500
     13 CAV        -0.5580   -1.0560    0.1260 ca        1 2XA     -0.072300
     14 CAF         0.2820    1.8410    1.5420 ca        1 2XA     -0.114250
     15 CAL         0.2720    2.6130    2.7050 ca        1 2XA     -0.140250
     16 CAR        -0.9000    2.7700    3.4410 ca        1 2XA     -0.140000
     17 CAX        -2.0680    2.1390    3.0150 ca        1 2XA     -0.140250
     18 CAQ        -2.0620    1.3640    1.8580 ca        1 2XA     -0.114250
     19 CAK        -0.8890    1.2120    1.1010 ca        1 2XA     -0.068800
     20 CAE        -2.5040    1.6440   -1.6370 ca        1 2XA     -0.114250
     21 CAJ        -3.7400    1.8050   -2.2620 ca        1 2XA     -0.140250
     22 CAP        -4.7540    0.8670   -2.0720 ca        1 2XA     -0.140000
     23 CAW        -4.5280   -0.2330   -1.2470 ca        1 2XA     -0.140250
     24 CAO        -3.2920   -0.4000   -0.6220 ca        1 2XA     -0.114250
     25 CAI        -2.2610    0.5290   -0.8210 ca        1 2XA     -0.068800
     26 CAZ        -0.9180    0.3740   -0.1510 c3        1 2XA      0.192000
     27 HN1         4.2240    2.3100   -2.4200 hn        1 2XA      0.333800
     28 HN2         3.9460    0.7470   -2.6870 hn        1 2XA      0.333800
     29 HA          2.2890    2.5120   -1.0490 h1        1 2XA      0.063700
     30 HB1C        2.0710   -0.4300   -1.8090 h1        1 2XA      0.076700
     31 HB2C        1.8870   -0.0370   -0.0510 h1        1 2XA      0.076700
     32 HAG        -0.8070   -4.1610   -1.3050 ha        1 2XA      0.142000
     33 HAH         1.0570   -3.0030    2.4340 ha        1 2XA      0.142000
     34 HAN         0.4590   -0.6390    2.0050 ha        1 2XA      0.159500
     35 HAF         1.2450    1.7280    0.9960 ha        1 2XA      0.160750
     36 HAL         1.2100    3.0880    3.0340 ha        1 2XA      0.127000
     37 HAR        -0.9040    3.3810    4.3540 ha        1 2XA      0.117500
     38 HAX        -2.9970    2.2510    3.5910 ha        1 2XA      0.127000
     39 HAQ        -2.9910    0.8680    1.5390 ha        1 2XA      0.160750
     40 HAE        -1.7130    2.4000   -1.7880 ha        1 2XA      0.160750
     41 HAJ        -3.9120    2.6790   -2.9070 ha        1 2XA      0.127000
     42 HAP        -5.7260    0.9960   -2.5670 ha        1 2XA      0.117500
     43 HAW        -5.3240   -0.9720   -1.0840 ha        1 2XA      0.127000
     44 HAO        -3.1300   -1.2670    0.0360 ha        1 2XA      0.160750
     45 CL          0.5390   -5.3590    0.9020 cl        1 2XA     -0.123400
     46 HAM        -1.3980   -1.7870   -1.7370 ha        1 2XA      0.159500
@<TRIPOS>BOND
     1    1    2 1   
     2    1   27 1   
     3    1   28 1   
     4    2    3 1   
     5    2    4 1   
     6    2   29 1   
     7    3    7 1   
     8    3   30 1   
     9    3   31 1   
    10    4    5 1   
    11    4    6 1   
    12    7   26 1   
    13    8    9 ar  
    14    8   13 ar  
    15    8   46 1   
    16    9   10 ar  
    17    9   32 1   
    18   10   11 ar  
    19   10   45 1   
    20   11   12 ar  
    21   11   33 1   
    22   12   13 ar  
    23   12   34 1   
    24   13   26 1   
    25   14   15 ar  
    26   14   19 ar  
    27   14   35 1   
    28   15   16 ar  
    29   15   36 1   
    30   16   17 ar  
    31   16   37 1   
    32   17   18 ar  
    33   17   38 1   
    34   18   19 ar  
    35   18   39 1   
    36   19   26 1   
    37   20   21 ar  
    38   20   25 ar  
    39   20   40 1   
    40   21   22 ar  
    41   21   41 1   
    42   22   23 ar  
    43   22   42 1   
    44   23   24 ar  
    45   23   43 1   
    46   24   25 ar  
    47   24   44 1   
    48   25   26 1   
@<TRIPOS>SUBSTRUCTURE
     1 2XA         1 TEMP              0 ****  ****    0 ROOT
