@<TRIPOS>MOLECULE
2XB
   48    50     1     0     0
SMALL
bcc


@<TRIPOS>ATOM
      1 OE1         0.5050    0.5450   -0.0860 o         1 2XB     -0.541000
      2 CT4         1.4720    0.0730   -0.6930 c         1 2XB      0.637100
      3 OE2         1.4150   -1.2880   -0.8090 oh        1 2XB     -0.603100
      4 CT3         2.6150    0.8240   -1.2990 c3        1 2XB     -0.188400
      5 CT2         3.9690    0.2660   -0.9040 c3        1 2XB     -0.077400
      6 CT1         4.8350   -0.1310   -2.1040 c3        1 2XB     -0.069300
      7 CT5         6.3080   -0.3360   -1.5680 c         1 2XB      0.914600
      8 OT1         6.8640    0.6850   -1.0910 o         1 2XB     -0.820800
      9 OXT         6.8200   -1.4860   -1.6550 o         1 2XB     -0.820800
     10 NT1         4.3500   -1.3090   -2.8010 ns        1 2XB     -0.518900
     11 CAV         3.6860   -1.2190   -4.0040 c         1 2XB      0.643700
     12 OAD         3.1290   -0.1620   -4.3870 o         1 2XB     -0.644100
     13 CAY         3.5640   -2.4600   -4.8330 ca        1 2XB     -0.127600
     14 CAJ         3.5560   -3.7410   -4.2750 ca        1 2XB     -0.090000
     15 CAH         3.4280   -4.8600   -5.0970 ca        1 2XB     -0.138500
     16 CAK         3.4380   -2.3100   -6.2210 ca        1 2XB     -0.090000
     17 CAI         3.3150   -3.4290   -7.0390 ca        1 2XB     -0.138500
     18 CAX         3.3070   -4.7130   -6.4820 ca        1 2XB     -0.069300
     19 CAO         3.1890   -5.9090   -7.3670 c3        1 2XB      0.026100
     20 CAZ         1.7970   -6.1910   -7.7610 cc        1 2XB     -0.055400
     21 CBC         1.1780   -5.8350   -9.0120 ca        1 2XB     -0.359400
     22 CBA         1.5270   -5.1520  -10.1980 ca        1 2XB      0.736600
     23 OAE         2.8000   -4.6510  -10.2910 oh        1 2XB     -0.604300
     24 NAS         0.6660   -4.9710  -11.2210 nb        1 2XB     -0.848000
     25 CAW        -0.6180   -5.5070  -11.0730 ca        1 2XB      0.895900
     26 NAA        -1.4670   -5.4100  -12.1940 nv        1 2XB     -0.914500
     27 NAP        -1.1100   -6.1650   -9.9670 nb        1 2XB     -0.784000
     28 CBB        -0.1950   -6.3220   -8.9630 ca        1 2XB      0.493800
     29 NAR        -0.3710   -6.9550   -7.7330 na        1 2XB     -0.283100
     30 CAL         0.8300   -6.8590   -7.0120 cd        1 2XB     -0.131100
     31 H2          2.5340    1.8970   -0.9820 hc        1 2XB      0.088700
     32 H3          3.8550   -0.6070   -0.2090 hc        1 2XB      0.063700
     33 H4          4.8620    0.7400   -2.8220 h1        1 2XB      0.064700
     34 H6          2.1940   -1.6030   -1.2910 ho        1 2XB      0.442000
     35 H7          3.6460   -3.8830   -3.1870 ha        1 2XB      0.148500
     36 H8          3.4260   -5.8650   -4.6500 ha        1 2XB      0.130500
     37 H9          3.4290   -1.2940   -6.6490 ha        1 2XB      0.148500
     38 H10         3.2200   -3.3120   -8.1300 ha        1 2XB      0.130500
     39 H11         3.6170   -6.8090   -6.8440 hc        1 2XB      0.060700
     40 H12         3.7990   -5.7360   -8.2990 hc        1 2XB      0.060700
     41 H14        -1.2390   -4.6840  -12.8350 hn        1 2XB      0.413800
     42 H15        -2.4390   -5.5000  -11.9960 hn        1 2XB      0.413800
     43 H16        -1.2200   -7.3270   -7.3970 hn        1 2XB      0.308700
     44 H17         0.9000   -7.2790   -6.0070 h4        1 2XB      0.174000
     45 H18         2.4880    0.7930   -2.4190 hc        1 2XB      0.088700
     46 H19         4.5510    1.0530   -0.3500 hc        1 2XB      0.063700
     47 H20         2.9100   -4.1950  -11.1430 ho        1 2XB      0.441000
     48 HT12        4.9580   -2.1000   -2.6730 hn        1 2XB      0.328500
@<TRIPOS>BOND
     1    1    2 2   
     2    2    3 1   
     3    2    4 1   
     4    3   34 1   
     5    4    5 1   
     6    4   31 1   
     7    4   45 1   
     8    5    6 1   
     9    5   32 1   
    10    5   46 1   
    11    6    7 1   
    12    6   10 1   
    13    6   33 1   
    14    7    8 1   
    15    7    9 1   
    16   10   11 1   
    17   10   48 1   
    18   11   12 2   
    19   11   13 1   
    20   13   14 ar  
    21   13   16 ar  
    22   14   15 ar  
    23   14   35 1   
    24   15   18 ar  
    25   15   36 1   
    26   16   17 ar  
    27   16   37 1   
    28   17   18 ar  
    29   17   38 1   
    30   18   19 1   
    31   19   20 1   
    32   19   39 1   
    33   19   40 1   
    34   20   21 1   
    35   20   30 2   
    36   21   22 ar  
    37   21   28 ar  
    38   22   23 1   
    39   22   24 ar  
    40   23   47 1   
    41   24   25 ar  
    42   25   26 1   
    43   25   27 ar  
    44   26   41 1   
    45   26   42 1   
    46   27   28 ar  
    47   28   29 1   
    48   29   30 1   
    49   29   43 1   
    50   30   44 1   
@<TRIPOS>SUBSTRUCTURE
     1 2XB         1 TEMP              0 ****  ****    0 ROOT
