@<TRIPOS>MOLECULE
2XB
   47    49     1     0     0
SMALL
bcc


@<TRIPOS>ATOM
      1 OE1         0.4660   -1.8390   -0.3410 o         1 2XB     -0.876300
      2 CT4         1.4830   -1.8510   -1.0970 c         1 2XB      0.907600
      3 OE2         1.8450   -2.9000   -1.7180 o         1 2XB     -0.876300
      4 CT3         2.2630   -0.5490   -1.3060 c3        1 2XB     -0.191400
      5 CT2         3.6770   -0.6100   -0.7700 c3        1 2XB     -0.076400
      6 CT1         4.7270    0.0250   -1.7020 c3        1 2XB     -0.037300
      7 CT5         6.0730    0.1350   -0.9070 c         1 2XB      0.918600
      8 OT1         6.8320   -0.8720   -0.8320 o         1 2XB     -0.851300
      9 OXT         6.3200    1.2490   -0.3650 o         1 2XB     -0.851300
     10 NT1         4.9080   -0.7390   -2.9240 n         1 2XB     -0.485900
     11 CAV         4.1820   -0.5100   -4.0630 c         1 2XB      0.658700
     12 OAD         3.7540    0.6160   -4.4120 o         1 2XB     -0.654100
     13 CAY         3.9690   -1.6920   -4.9680 ca        1 2XB     -0.131600
     14 CAJ         3.3700   -2.8460   -4.4460 ca        1 2XB     -0.095000
     15 CAH         3.1100   -3.9220   -5.2920 ca        1 2XB     -0.154000
     16 CAK         4.3000   -1.6230   -6.3210 ca        1 2XB     -0.095000
     17 CAI         4.0260   -2.7000   -7.1640 ca        1 2XB     -0.154000
     18 CAX         3.4200   -3.8530   -6.6560 ca        1 2XB     -0.103300
     19 CAO         3.0900   -4.9950   -7.5560 c3        1 2XB      0.036100
     20 CAZ         1.6450   -5.1290   -7.8090 cc        1 2XB     -0.069400
     21 CBC         1.0390   -5.7160   -8.9790 ca        1 2XB     -0.346400
     22 CBA         1.4510   -6.2830  -10.2010 ca        1 2XB      0.721600
     23 OAE         2.8000   -6.3550  -10.4510 oh        1 2XB     -0.602300
     24 NAS         0.5840   -6.7420  -11.1320 nb        1 2XB     -0.855000
     25 CAW        -0.7750   -6.6510  -10.8270 ca        1 2XB      0.867900
     26 NAA        -1.6680   -7.2420  -11.7600 nh        1 2XB     -0.905500
     27 NAP        -1.3280   -6.0990   -9.6960 nb        1 2XB     -0.776000
     28 CBB        -0.4080   -5.6490   -8.7880 ca        1 2XB      0.472800
     29 NAR        -0.6390   -5.0490   -7.5530 na        1 2XB     -0.275100
     30 CAL         0.6000   -4.7350   -6.9730 cd        1 2XB     -0.102100
     31 H2          2.2670   -0.3350   -2.4070 hc        1 2XB      0.024200
     32 H3          3.7390   -0.0620    0.2070 hc        1 2XB      0.046700
     33 H4          4.3970    1.0640   -1.9840 h1        1 2XB      0.066700
     34 H6          5.2200   -1.6720   -2.7560 hn        1 2XB      0.308500
     35 H7          3.0600   -2.8870   -3.3720 ha        1 2XB      0.185500
     36 H8          2.6500   -4.8320   -4.8780 ha        1 2XB      0.119500
     37 H9          4.7610   -0.7060   -6.7190 ha        1 2XB      0.185500
     38 H10         4.2780   -2.6370   -8.2320 ha        1 2XB      0.119500
     39 H11         3.6210   -4.8850   -8.5430 hc        1 2XB      0.053700
     40 H12         3.4620   -5.9520   -7.0900 hc        1 2XB      0.053700
     41 H14        -1.3110   -7.2780  -12.6900 hn        1 2XB      0.397300
     42 H15        -2.5970   -6.8840  -11.7090 hn        1 2XB      0.397300
     43 H16        -1.5240   -4.8580   -7.1620 hn        1 2XB      0.311700
     44 H17         0.6490   -4.2370   -5.9970 h4        1 2XB      0.213000
     45 H18         1.7070    0.2860   -0.8090 hc        1 2XB      0.024200
     46 H19         3.9620   -1.6780   -0.5710 hc        1 2XB      0.046700
     47 H20         2.9450   -6.7660  -11.3200 ho        1 2XB      0.430000
@<TRIPOS>BOND
     1    1    2 1   
     2    2    3 1   
     3    2    4 1   
     4    4    5 1   
     5    4   31 1   
     6    4   45 1   
     7    5    6 1   
     8    5   32 1   
     9    5   46 1   
    10    6    7 1   
    11    6   10 1   
    12    6   33 1   
    13    7    8 1   
    14    7    9 1   
    15   10   11 1   
    16   10   34 1   
    17   11   12 2   
    18   11   13 1   
    19   13   14 ar  
    20   13   16 ar  
    21   14   15 ar  
    22   14   35 1   
    23   15   18 ar  
    24   15   36 1   
    25   16   17 ar  
    26   16   37 1   
    27   17   18 ar  
    28   17   38 1   
    29   18   19 1   
    30   19   20 1   
    31   19   39 1   
    32   19   40 1   
    33   20   21 1   
    34   20   30 2   
    35   21   22 ar  
    36   21   28 ar  
    37   22   23 1   
    38   22   24 ar  
    39   23   47 1   
    40   24   25 ar  
    41   25   26 1   
    42   25   27 ar  
    43   26   41 1   
    44   26   42 1   
    45   27   28 ar  
    46   28   29 1   
    47   29   30 1   
    48   29   43 1   
    49   30   44 1   
@<TRIPOS>SUBSTRUCTURE
     1 2XB         1 TEMP              0 ****  ****    0 ROOT
