@<TRIPOS>MOLECULE
2XB
   48    50     1     0     0
SMALL
bcc


@<TRIPOS>ATOM
      1 OE1         0.4670    0.4930   -0.0630 o         1 2XB     -0.541000
      2 CT4         1.4380    0.0370   -0.6740 c         1 2XB      0.637100
      3 OE2         1.3990   -1.3250   -0.7970 oh        1 2XB     -0.603100
      4 CT3         2.5710    0.8050   -1.2790 c3        1 2XB     -0.188400
      5 CT2         3.9330    0.2620   -0.8900 c3        1 2XB     -0.077400
      6 CT1         4.8020   -0.1180   -2.0930 c3        1 2XB     -0.069300
      7 CT5         6.2780   -0.3070   -1.5610 c         1 2XB      0.914600
      8 OT1         6.8220    0.7200   -1.0800 o         1 2XB     -0.820800
      9 OXT         6.8040   -1.4490   -1.6540 o         1 2XB     -0.820800
     10 NT1         4.3300   -1.2990   -2.7950 n         1 2XB     -0.518900
     11 CAV         3.6630   -1.2100   -3.9960 c         1 2XB      0.643700
     12 OAD         3.0910   -0.1590   -4.3730 o         1 2XB     -0.644100
     13 CAY         3.5550   -2.4490   -4.8320 ca        1 2XB     -0.127600
     14 CAJ         3.5660   -3.7330   -4.2800 ca        1 2XB     -0.090000
     15 CAH         3.4510   -4.8490   -5.1080 ca        1 2XB     -0.138500
     16 CAK         3.4250   -2.2930   -6.2180 ca        1 2XB     -0.090000
     17 CAI         3.3160   -3.4090   -7.0420 ca        1 2XB     -0.138500
     18 CAX         3.3260   -4.6970   -6.4920 ca        1 2XB     -0.069300
     19 CAO         3.2220   -5.8900   -7.3830 c3        1 2XB      0.026100
     20 CAZ         1.8330   -6.1890   -7.7740 cc        1 2XB     -0.055400
     21 CBC         1.2060   -5.8350   -9.0230 ca        1 2XB     -0.359400
     22 CBA         1.5440   -5.1440  -10.2070 ca        1 2XB      0.736600
     23 OAE         2.8100   -4.6250  -10.3010 oh        1 2XB     -0.604300
     24 NAS         0.6780   -4.9700  -11.2280 nb        1 2XB     -0.848000
     25 CAW        -0.5980   -5.5240  -11.0790 ca        1 2XB      0.895900
     26 NAA        -1.4510   -5.4340  -12.1970 nh        1 2XB     -0.914500
     27 NAP        -1.0790   -6.1940   -9.9740 nb        1 2XB     -0.784000
     28 CBB        -0.1600   -6.3420   -8.9730 ca        1 2XB      0.493800
     29 NAR        -0.3240   -6.9830   -7.7450 na        1 2XB     -0.283100
     30 CAL         0.8770   -6.8730   -7.0260 cd        1 2XB     -0.131100
     31 H2          2.4760    1.8750   -0.9560 hc        1 2XB      0.088700
     32 H3          3.8310   -0.6150   -0.1990 hc        1 2XB      0.063700
     33 H4          4.8160    0.7570   -2.8070 h1        1 2XB      0.064700
     34 H6          2.1810   -1.6270   -1.2830 ho        1 2XB      0.442000
     35 H7          3.6600   -3.8790   -3.1930 ha        1 2XB      0.148500
     36 H8          3.4640   -5.8560   -4.6660 ha        1 2XB      0.130500
     37 H9          3.4010   -1.2760   -6.6410 ha        1 2XB      0.148500
     38 H10         3.2170   -3.2890   -8.1320 ha        1 2XB      0.130500
     39 H11         3.8270   -5.7030   -8.3160 hc        1 2XB      0.060700
     40 H12         3.6630   -6.7860   -6.8650 hc        1 2XB      0.060700
     41 H14        -2.4210   -5.5390  -11.9980 hn        1 2XB      0.413800
     42 H15        -1.2340   -4.7020  -12.8360 hn        1 2XB      0.413800
     43 H16        -1.1670   -7.3670   -7.4090 hn        1 2XB      0.308700
     44 H17         0.9540   -7.2960   -6.0230 h4        1 2XB      0.174000
     45 H18         2.4420    0.7780   -2.3990 hc        1 2XB      0.088700
     46 H19         4.5060    1.0540   -0.3330 hc        1 2XB      0.063700
     47 H20         2.9120   -4.1640  -11.1510 ho        1 2XB      0.441000
     48 HT12        4.9490   -2.0820   -2.6720 hn        1 2XB      0.328500
@<TRIPOS>BOND
     1    1    2 2   
     2    2    3 1   
     3    2    4 1   
     4    3   34 1   
     5    4    5 1   
     6    4   31 1   
     7    4   45 1   
     8    5    6 1   
     9    5   32 1   
    10    5   46 1   
    11    6    7 1   
    12    6   10 1   
    13    6   33 1   
    14    7    8 1   
    15    7    9 1   
    16   10   11 1   
    17   10   48 1   
    18   11   12 2   
    19   11   13 1   
    20   13   14 ar  
    21   13   16 ar  
    22   14   15 ar  
    23   14   35 1   
    24   15   18 ar  
    25   15   36 1   
    26   16   17 ar  
    27   16   37 1   
    28   17   18 ar  
    29   17   38 1   
    30   18   19 1   
    31   19   20 1   
    32   19   39 1   
    33   19   40 1   
    34   20   21 1   
    35   20   30 2   
    36   21   22 ar  
    37   21   28 ar  
    38   22   23 1   
    39   22   24 ar  
    40   23   47 1   
    41   24   25 ar  
    42   25   26 1   
    43   25   27 ar  
    44   26   41 1   
    45   26   42 1   
    46   27   28 ar  
    47   28   29 1   
    48   29   30 1   
    49   29   43 1   
    50   30   44 1   
@<TRIPOS>SUBSTRUCTURE
     1 2XB         1 TEMP              0 ****  ****    0 ROOT
