@<TRIPOS>MOLECULE
2XC
   44    46     1     0     0
SMALL
bcc


@<TRIPOS>ATOM
      1 CAS        -0.0190    0.8310    0.2960 ca        1 2XC     -0.126000
      2 CAT         1.3730    0.7790    0.3450 ca        1 2XC     -0.129000
      3 CAU         2.0150    0.1950    1.4350 ca        1 2XC     -0.130000
      4 CAV         1.2600   -0.3400    2.4780 ca        1 2XC     -0.129000
      5 CAW        -0.1320   -0.2900    2.4320 ca        1 2XC     -0.126000
      6 CAR        -0.7840    0.2970    1.3400 ca        1 2XC     -0.077300
      7 CAP        -2.2750    0.3590    1.2730 c3        1 2XC     -0.048400
      8 CAQ        -2.8210    1.2000    2.4450 c3        1 2XC      0.200800
      9 CAO        -2.9000   -1.0320    1.2980 c3        1 2XC     -0.072400
     10 CAN        -4.4110   -0.9490    1.3280 c3        1 2XC     -0.109400
     11 CAM        -4.8930   -0.0440    2.4630 c3        1 2XC      0.196800
     12 NAL        -4.2740    1.2660    2.4920 nh        1 2XC     -0.647400
     13 CAK        -4.8670    2.4030    1.9820 c2        1 2XC      0.149000
     14 CAI        -6.0820    2.6520    1.4370 ce        1 2XC     -0.374200
     15 CAH        -7.1020    1.7440    0.9380 c         1 2XC      0.615900
     16 OAJ        -6.8700    0.6320    0.4390 o         1 2XC     -0.565100
     17 CAE        -8.5060    2.2260    1.0460 ca        1 2XC     -0.175600
     18 CAD        -9.4460    1.3940    1.6650 ca        1 2XC     -0.063000
     19 CAC       -10.7730    1.7910    1.8120 ca        1 2XC     -0.170000
     20 CAB       -11.1870    3.0300    1.3220 ca        1 2XC     -0.079000
     21 CAA       -10.2790    3.8700    0.6850 ca        1 2XC     -0.221000
     22 CAF        -8.9400    3.4690    0.5480 ca        1 2XC      0.153100
     23 OAG        -8.0150    4.2690   -0.0840 oh        1 2XC     -0.497100
     24 H1         -0.5180    1.2930   -0.5690 ha        1 2XC      0.132500
     25 H2          1.9650    1.2010   -0.4810 ha        1 2XC      0.131500
     26 H3          3.1140    0.1540    1.4730 ha        1 2XC      0.132000
     27 H4          1.7620   -0.8040    3.3400 ha        1 2XC      0.131500
     28 H5         -0.7220   -0.7180    3.2570 ha        1 2XC      0.132500
     29 H6         -2.5790    0.8590    0.3090 hc        1 2XC      0.064700
     30 H7         -2.3860    2.2360    2.3850 h1        1 2XC      0.055700
     31 H8         -2.4820    0.7340    3.4140 h1        1 2XC      0.055700
     32 H9         -2.5700   -1.6040    0.3920 hc        1 2XC      0.045200
     33 H10        -2.5340   -1.5890    2.2000 hc        1 2XC      0.045200
     34 H11        -4.8010   -0.5590    0.3500 hc        1 2XC      0.064700
     35 H12        -4.8440   -1.9700    1.4820 hc        1 2XC      0.064700
     36 H13        -6.0100    0.0640    2.4120 h1        1 2XC      0.057200
     37 H14        -4.6380   -0.5330    3.4480 h1        1 2XC      0.057200
     38 H15        -4.2300    3.3020    2.1650 h4        1 2XC      0.128000
     39 H16        -6.3500    3.7190    1.3150 ha        1 2XC      0.156000
     40 H17        -9.1190    0.4070    2.0320 ha        1 2XC      0.145000
     41 H18       -11.4930    1.1260    2.3080 ha        1 2XC      0.137000
     42 H19       -12.2350    3.3450    1.4340 ha        1 2XC      0.134000
     43 H20       -10.6040    4.8420    0.2880 ha        1 2XC      0.134000
     44 H21        -8.4780    5.0480   -0.4270 ho        1 2XC      0.421000
@<TRIPOS>BOND
     1    1    2 ar  
     2    1    6 ar  
     3    1   24 1   
     4    2    3 ar  
     5    2   25 1   
     6    3    4 ar  
     7    3   26 1   
     8    4    5 ar  
     9    4   27 1   
    10    5    6 ar  
    11    5   28 1   
    12    6    7 1   
    13    7    8 1   
    14    7    9 1   
    15    7   29 1   
    16    8   12 1   
    17    8   30 1   
    18    8   31 1   
    19    9   10 1   
    20    9   32 1   
    21    9   33 1   
    22   10   11 1   
    23   10   34 1   
    24   10   35 1   
    25   11   12 1   
    26   11   36 1   
    27   11   37 1   
    28   12   13 1   
    29   13   14 2   
    30   13   38 1   
    31   14   15 1   
    32   14   39 1   
    33   15   16 2   
    34   15   17 1   
    35   17   18 ar  
    36   17   22 ar  
    37   18   19 ar  
    38   18   40 1   
    39   19   20 ar  
    40   19   41 1   
    41   20   21 ar  
    42   20   42 1   
    43   21   22 ar  
    44   21   43 1   
    45   22   23 1   
    46   23   44 1   
@<TRIPOS>SUBSTRUCTURE
     1 2XC         1 TEMP              0 ****  ****    0 ROOT
