@<TRIPOS>MOLECULE
2XC
   44    46     1     0     0
SMALL
bcc


@<TRIPOS>ATOM
      1 CAS         0.4850    0.6350    0.7430 ca        1 2XC     -0.124500
      2 CAT         1.7520    0.3570    1.2520 ca        1 2XC     -0.128500
      3 CAU         1.8990   -0.5130    2.3320 ca        1 2XC     -0.129000
      4 CAV         0.7710   -1.1050    2.9010 ca        1 2XC     -0.128500
      5 CAW        -0.4970   -0.8300    2.3930 ca        1 2XC     -0.124500
      6 CAR        -0.6510    0.0430    1.3090 ca        1 2XC     -0.081300
      7 CAP        -2.0030    0.3480    0.7480 c3        1 2XC     -0.030400
      8 CAQ        -2.8590    1.0610    1.8120 c3        1 2XC      0.217800
      9 CAO        -2.7130   -0.9100    0.2680 c3        1 2XC     -0.073400
     10 CAN        -4.0880   -0.5600   -0.2560 c3        1 2XC     -0.089400
     11 CAM        -4.9190    0.1930    0.7840 c3        1 2XC      0.206800
     12 NAL        -4.2180    1.3100    1.3770 nh        1 2XC     -0.669400
     13 CAK        -4.8640    2.4130    1.8730 c2        1 2XC      0.173000
     14 CAI        -6.1850    2.6760    2.0550 ce        1 2XC     -0.379200
     15 CAH        -7.3160    1.7690    2.0200 c         1 2XC      0.609900
     16 OAJ        -7.2260    0.5380    2.1850 o         1 2XC     -0.589100
     17 CAE        -8.6620    2.3840    1.8790 ca        1 2XC     -0.184600
     18 CAD        -9.7410    1.7580    2.5200 ca        1 2XC     -0.053000
     19 CAC       -11.0300    2.2740    2.4370 ca        1 2XC     -0.178000
     20 CAB       -11.2700    3.4310    1.6940 ca        1 2XC     -0.073000
     21 CAA       -10.2240    4.0670    1.0360 ca        1 2XC     -0.230000
     22 CAF        -8.9210    3.5470    1.1290 ca        1 2XC      0.160100
     23 OAG        -7.8700    4.1570    0.4840 oh        1 2XC     -0.489100
     24 H1          0.3790    1.3210   -0.1110 ha        1 2XC      0.133000
     25 H2          2.6390    0.8260    0.8000 ha        1 2XC      0.132000
     26 H3          2.8980   -0.7310    2.7330 ha        1 2XC      0.132000
     27 H4          0.8820   -1.7930    3.7520 ha        1 2XC      0.132000
     28 H5         -1.3810   -1.3040    2.8460 ha        1 2XC      0.133000
     29 H6         -1.8860    1.0410   -0.1340 hc        1 2XC      0.062700
     30 H7         -2.3630    2.0390    2.0710 h1        1 2XC      0.045700
     31 H8         -2.8760    0.4230    2.7440 h1        1 2XC      0.045700
     32 H9         -2.1090   -1.3990   -0.5390 hc        1 2XC      0.048200
     33 H10        -2.8030   -1.6410    1.1140 hc        1 2XC      0.048200
     34 H11        -4.6440   -1.4950   -0.5270 hc        1 2XC      0.050200
     35 H12        -3.9900    0.0590   -1.1850 hc        1 2XC      0.050200
     36 H13        -5.8480    0.5880    0.2800 h1        1 2XC      0.064200
     37 H14        -5.2470   -0.5280    1.5900 h1        1 2XC      0.064200
     38 H15        -4.1570    3.2430    2.1120 h4        1 2XC      0.126000
     39 H16        -6.4490    3.7250    2.2760 ha        1 2XC      0.149000
     40 H17        -9.5450    0.8340    3.0900 ha        1 2XC      0.155000
     41 H18       -11.8590    1.7690    2.9530 ha        1 2XC      0.137000
     42 H19       -12.2890    3.8410    1.6250 ha        1 2XC      0.133000
     43 H20       -10.4100    4.9740    0.4430 ha        1 2XC      0.133000
     44 H21        -8.2250    4.8930   -0.0360 ho        1 2XC      0.417000
@<TRIPOS>BOND
     1    1    2 ar  
     2    1    6 ar  
     3    1   24 1   
     4    2    3 ar  
     5    2   25 1   
     6    3    4 ar  
     7    3   26 1   
     8    4    5 ar  
     9    4   27 1   
    10    5    6 ar  
    11    5   28 1   
    12    6    7 1   
    13    7    8 1   
    14    7    9 1   
    15    7   29 1   
    16    8   12 1   
    17    8   30 1   
    18    8   31 1   
    19    9   10 1   
    20    9   32 1   
    21    9   33 1   
    22   10   11 1   
    23   10   34 1   
    24   10   35 1   
    25   11   12 1   
    26   11   36 1   
    27   11   37 1   
    28   12   13 1   
    29   13   14 2   
    30   13   38 1   
    31   14   15 1   
    32   14   39 1   
    33   15   16 2   
    34   15   17 1   
    35   17   18 ar  
    36   17   22 ar  
    37   18   19 ar  
    38   18   40 1   
    39   19   20 ar  
    40   19   41 1   
    41   20   21 ar  
    42   20   42 1   
    43   21   22 ar  
    44   21   43 1   
    45   22   23 1   
    46   23   44 1   
@<TRIPOS>SUBSTRUCTURE
     1 2XC         1 TEMP              0 ****  ****    0 ROOT
