@<TRIPOS>MOLECULE
2XC
   44    46     1     0     0
SMALL
bcc


@<TRIPOS>ATOM
      1 CAS        -0.0290    0.7860    0.2280 ca        1 2XC     -0.126000
      2 CAT         1.3640    0.7380    0.2610 ca        1 2XC     -0.129000
      3 CAU         2.0200    0.1860    1.3610 ca        1 2XC     -0.130000
      4 CAV         1.2770   -0.3180    2.4290 ca        1 2XC     -0.129000
      5 CAW        -0.1150   -0.2710    2.3970 ca        1 2XC     -0.126000
      6 CAR        -0.7810    0.2820    1.2960 ca        1 2XC     -0.077300
      7 CAP        -2.2730    0.3410    1.2450 c3        1 2XC     -0.048400
      8 CAQ        -2.8060    1.2160    2.3980 c3        1 2XC      0.200800
      9 CAO        -2.8950   -1.0490    1.3190 c3        1 2XC     -0.072400
     10 CAN        -4.4050   -0.9670    1.3640 c3        1 2XC     -0.109400
     11 CAM        -4.8760   -0.0290    2.4770 c3        1 2XC      0.196800
     12 NAL        -4.2580    1.2810    2.4600 nh        1 2XC     -0.647400
     13 CAK        -4.8590    2.4020    1.9230 c2        1 2XC      0.149000
     14 CAI        -6.0800    2.6340    1.3860 ce        1 2XC     -0.374200
     15 CAH        -7.1050    1.7100    0.9250 c         1 2XC      0.615900
     16 OAJ        -6.8770    0.5840    0.4570 o         1 2XC     -0.565100
     17 CAE        -8.5080    2.1950    1.0340 ca        1 2XC     -0.175600
     18 CAD        -9.4400    1.3800    1.6880 ca        1 2XC     -0.063000
     19 CAC       -10.7660    1.7800    1.8370 ca        1 2XC     -0.170000
     20 CAB       -11.1870    3.0030    1.3150 ca        1 2XC     -0.079000
     21 CAA       -10.2870    3.8250    0.6440 ca        1 2XC     -0.221000
     22 CAF        -8.9480    3.4210    0.5040 ca        1 2XC      0.153100
     23 OAG        -8.0320    4.2040   -0.1610 oh        1 2XC     -0.497100
     24 H1         -0.5390    1.2220   -0.6450 ha        1 2XC      0.132500
     25 H2          1.9460    1.1350   -0.5830 ha        1 2XC      0.131500
     26 H3          3.1190    0.1480    1.3870 ha        1 2XC      0.132000
     27 H4          1.7900   -0.7550    3.2980 ha        1 2XC      0.131500
     28 H5         -0.6940   -0.6740    3.2420 ha        1 2XC      0.132500
     29 H6         -2.5890    0.8110    0.2700 hc        1 2XC      0.064700
     30 H7         -2.4550    0.7790    3.3760 h1        1 2XC      0.055700
     31 H8         -2.3740    2.2500    2.3030 h1        1 2XC      0.055700
     32 H9         -2.5750   -1.6470    0.4260 hc        1 2XC      0.045200
     33 H10        -2.5180   -1.5790    2.2330 hc        1 2XC      0.045200
     34 H11        -4.8080   -0.6070    0.3800 hc        1 2XC      0.064700
     35 H12        -4.8350   -1.9840    1.5530 hc        1 2XC      0.064700
     36 H13        -5.9940    0.0760    2.4360 h1        1 2XC      0.057200
     37 H14        -4.6080   -0.4890    3.4730 h1        1 2XC      0.057200
     38 H15        -4.2210    3.3070    2.0720 h4        1 2XC      0.128000
     39 H16        -6.3510    3.6960    1.2360 ha        1 2XC      0.156000
     40 H17        -9.1080    0.4050    2.0800 ha        1 2XC      0.145000
     41 H18       -11.4810    1.1290    2.3600 ha        1 2XC      0.137000
     42 H19       -12.2350    3.3200    1.4290 ha        1 2XC      0.134000
     43 H20       -10.6170    4.7840    0.2210 ha        1 2XC      0.134000
     44 H21        -8.5000    4.9710   -0.5220 ho        1 2XC      0.421000
@<TRIPOS>BOND
     1    1    2 ar  
     2    1    6 ar  
     3    1   24 1   
     4    2    3 ar  
     5    2   25 1   
     6    3    4 ar  
     7    3   26 1   
     8    4    5 ar  
     9    4   27 1   
    10    5    6 ar  
    11    5   28 1   
    12    6    7 1   
    13    7    8 1   
    14    7    9 1   
    15    7   29 1   
    16    8   12 1   
    17    8   30 1   
    18    8   31 1   
    19    9   10 1   
    20    9   32 1   
    21    9   33 1   
    22   10   11 1   
    23   10   34 1   
    24   10   35 1   
    25   11   12 1   
    26   11   36 1   
    27   11   37 1   
    28   12   13 1   
    29   13   14 2   
    30   13   38 1   
    31   14   15 1   
    32   14   39 1   
    33   15   16 2   
    34   15   17 1   
    35   17   18 ar  
    36   17   22 ar  
    37   18   19 ar  
    38   18   40 1   
    39   19   20 ar  
    40   19   41 1   
    41   20   21 ar  
    42   20   42 1   
    43   21   22 ar  
    44   21   43 1   
    45   22   23 1   
    46   23   44 1   
@<TRIPOS>SUBSTRUCTURE
     1 2XC         1 TEMP              0 ****  ****    0 ROOT
