@<TRIPOS>MOLECULE
2XD
   35    37     1     0     0
SMALL
bcc


@<TRIPOS>ATOM
      1 C4         -0.2780   -0.7610   -0.0170 ca        1 2XD     -0.064000
      2 C14         0.9960   -1.5060   -4.3000 c3        1 2XD      0.178500
      3 C5          1.0620   -0.3960   -0.1950 ca        1 2XD     -0.173600
      4 C6          1.7680   -0.8830   -1.4110 c         1 2XD      0.613900
      5 C11         0.7760   -1.7570   -6.8560 cc        1 2XD     -0.254600
      6 C7          2.4140    0.1440   -2.2140 ce        1 2XD     -0.381200
      7 C8          2.5010    0.2790   -3.5590 c2        1 2XD      0.149000
      8 C9          2.0340    0.1150   -5.9130 c3        1 2XD      0.216800
      9 C10         1.9260   -0.8830   -7.0760 c3        1 2XD     -0.002100
     10 C12        -0.0960   -2.4600   -7.6930 cd        1 2XD     -0.132300
     11 C13         0.3080   -2.0340   -5.5080 cc        1 2XD      0.295600
     12 N1         -1.0090   -3.0950   -6.8440 na        1 2XD     -0.025600
     13 N2         -0.7800   -2.8520   -5.5510 nd        1 2XD     -0.494800
     14 C3         -1.0000   -0.3280    1.0930 ca        1 2XD     -0.170000
     15 O1          1.7780   -2.0940   -1.6760 o         1 2XD     -0.557100
     16 C2         -0.3830    0.4700    2.0570 ca        1 2XD     -0.081000
     17 C1          0.9520    0.8330    1.9150 ca        1 2XD     -0.221000
     18 C           1.6740    0.4010    0.7900 ca        1 2XD      0.153100
     19 O           2.9990    0.7350    0.6190 oh        1 2XD     -0.498100
     20 N           1.9760   -0.4740   -4.5870 nh        1 2XD     -0.668400
     21 H1         -0.7540   -1.4090   -0.7710 ha        1 2XD      0.147000
     22 H3          0.2340   -1.1110   -3.5630 h1        1 2XD      0.080700
     23 H4          2.9250    0.9150   -1.6080 ha        1 2XD      0.160000
     24 H5          3.1050    1.1420   -3.9250 h4        1 2XD      0.129000
     25 H6          1.2020    0.8720   -6.0250 h1        1 2XD      0.039700
     26 H7          3.0150    0.6590   -6.0190 h1        1 2XD      0.039700
     27 H8          1.8260   -0.2990   -8.0280 hc        1 2XD      0.058200
     28 H9          2.8660   -1.4940   -7.1450 hc        1 2XD      0.058200
     29 H10        -0.1430   -2.5570   -8.7760 h4        1 2XD      0.177000
     30 H11        -1.7530   -3.6950   -7.1110 hn        1 2XD      0.321700
     31 H12        -2.0530   -0.6200    1.2100 ha        1 2XD      0.137000
     32 H13        -0.9510    0.8100    2.9360 ha        1 2XD      0.133000
     33 H14         1.4450    1.4520    2.6780 ha        1 2XD      0.133000
     34 H15         3.2910    1.2110    1.4110 ho        1 2XD      0.421000
     35 H2          1.5410   -2.3660   -3.7980 h1        1 2XD      0.080700
@<TRIPOS>BOND
     1    1    3 ar  
     2    1   14 ar  
     3    1   21 1   
     4    2   11 1   
     5    2   20 1   
     6    2   22 1   
     7    2   35 1   
     8    3    4 1   
     9    3   18 ar  
    10    4    6 1   
    11    4   15 2   
    12    5    9 1   
    13    5   10 2   
    14    5   11 1   
    15    6    7 2   
    16    6   23 1   
    17    7   20 1   
    18    7   24 1   
    19    8    9 1   
    20    8   20 1   
    21    8   25 1   
    22    8   26 1   
    23    9   27 1   
    24    9   28 1   
    25   10   12 1   
    26   10   29 1   
    27   11   13 2   
    28   12   13 1   
    29   12   30 1   
    30   14   16 ar  
    31   14   31 1   
    32   16   17 ar  
    33   16   32 1   
    34   17   18 ar  
    35   17   33 1   
    36   18   19 1   
    37   19   34 1   
@<TRIPOS>SUBSTRUCTURE
     1 2XD         1 TEMP              0 ****  ****    0 ROOT
