@<TRIPOS>MOLECULE
2XD
   35    37     1     0     0
SMALL
bcc


@<TRIPOS>ATOM
      1 C4          0.6420   -0.9960    0.2480 ca        1 2XD     -0.070000
      2 C14         0.6740    0.5360   -6.0970 c3        1 2XD      0.166500
      3 C5          1.6910   -0.1890   -0.2040 ca        1 2XD     -0.184600
      4 C6          1.8840    0.0250   -1.6630 c         1 2XD      0.603900
      5 C11         0.2750   -1.9800   -6.4390 cc        1 2XD     -0.244600
      6 C7          0.6770    0.4410   -2.3660 ce        1 2XD     -0.361200
      7 C8          0.4120    0.5000   -3.6940 c2        1 2XD      0.145000
      8 C9          1.9130   -1.1130   -4.8050 c3        1 2XD      0.188800
      9 C10         1.1090   -2.3340   -5.2890 c3        1 2XD     -0.030100
     10 C12        -0.4550   -2.7380   -7.3610 cd        1 2XD     -0.136300
     11 C13         0.0350   -0.5970   -6.8280 cc        1 2XD      0.262600
     12 N1         -1.0690   -1.8160   -8.2180 na        1 2XD     -0.025600
     13 N2         -0.7850   -0.5490   -7.9120 nd        1 2XD     -0.496800
     14 C3          0.4640   -1.2460    1.6070 ca        1 2XD     -0.176000
     15 O1          2.9960   -0.1270   -2.1870 o         1 2XD     -0.536100
     16 C2          1.3330   -0.6790    2.5400 ca        1 2XD     -0.076000
     17 C1          2.3760    0.1400    2.1200 ca        1 2XD     -0.225000
     18 C           2.5550    0.3860    0.7480 ca        1 2XD      0.167100
     19 O           3.5490    1.2110    0.2830 oh        1 2XD     -0.476100
     20 N           1.1890    0.1450   -4.7870 nh        1 2XD     -0.630400
     21 H1         -0.0460   -1.4410   -0.4880 ha        1 2XD      0.139000
     22 H3          1.5620    0.8920   -6.6990 h1        1 2XD      0.073200
     23 H4         -0.1180    0.8170   -1.6970 ha        1 2XD      0.139000
     24 H5         -0.5570    0.9840   -3.9700 h4        1 2XD      0.122000
     25 H6          2.7910   -0.9650   -5.4970 h1        1 2XD      0.078200
     26 H7          2.3110   -1.3340   -3.7780 h1        1 2XD      0.078200
     27 H8          0.4620   -2.7190   -4.4550 hc        1 2XD      0.055200
     28 H9          1.8340   -3.1480   -5.5540 hc        1 2XD      0.055200
     29 H10        -0.5840   -3.8130   -7.4760 h4        1 2XD      0.178000
     30 H11        -1.6530   -2.0210   -8.9940 hn        1 2XD      0.321700
     31 H12        -0.3610   -1.8890    1.9440 ha        1 2XD      0.135000
     32 H13         1.1940   -0.8770    3.6140 ha        1 2XD      0.133000
     33 H14         3.0610    0.5920    2.8520 ha        1 2XD      0.135000
     34 H15         4.1020    1.4680    1.0360 ho        1 2XD      0.419000
     35 H2         -0.0430    1.3980   -5.9970 h1        1 2XD      0.073200
@<TRIPOS>BOND
     1    1    3 ar  
     2    1   14 ar  
     3    1   21 1   
     4    2   11 1   
     5    2   20 1   
     6    2   22 1   
     7    2   35 1   
     8    3    4 1   
     9    3   18 ar  
    10    4    6 1   
    11    4   15 2   
    12    5    9 1   
    13    5   10 2   
    14    5   11 1   
    15    6    7 2   
    16    6   23 1   
    17    7   20 1   
    18    7   24 1   
    19    8    9 1   
    20    8   20 1   
    21    8   25 1   
    22    8   26 1   
    23    9   27 1   
    24    9   28 1   
    25   10   12 1   
    26   10   29 1   
    27   11   13 2   
    28   12   13 1   
    29   12   30 1   
    30   14   16 ar  
    31   14   31 1   
    32   16   17 ar  
    33   16   32 1   
    34   17   18 ar  
    35   17   33 1   
    36   18   19 1   
    37   19   34 1   
@<TRIPOS>SUBSTRUCTURE
     1 2XD         1 TEMP              0 ****  ****    0 ROOT
