@<TRIPOS>MOLECULE
2XD
   35    37     1     0     0
SMALL
bcc


@<TRIPOS>ATOM
      1 C4          0.6320   -0.9600    0.2490 ca        1 2XD     -0.070000
      2 C14         0.6540    0.4780   -6.1180 c3        1 2XD      0.166500
      3 C5          1.6570   -0.1240   -0.2080 ca        1 2XD     -0.184600
      4 C6          1.8530    0.0760   -1.6690 c         1 2XD      0.603900
      5 C11         0.3410   -2.0550   -6.4210 cc        1 2XD     -0.244600
      6 C7          0.6370    0.4410   -2.3860 ce        1 2XD     -0.361200
      7 C8          0.3780    0.4710   -3.7160 c2        1 2XD      0.145000
      8 C9          1.9390   -1.1070   -4.7930 c3        1 2XD      0.188800
      9 C10         1.1790   -2.3630   -5.2610 c3        1 2XD     -0.030100
     10 C12        -0.3580   -2.8520   -7.3350 cd        1 2XD     -0.136300
     11 C13         0.0570   -0.6880   -6.8330 cc        1 2XD      0.262600
     12 N1         -0.9970   -1.9650   -8.2100 na        1 2XD     -0.025600
     13 N2         -0.7580   -0.6840   -7.9220 nd        1 2XD     -0.496800
     14 C3          0.4540   -1.1970    1.6100 ca        1 2XD     -0.176000
     15 O1          2.9730   -0.0450   -2.1840 o         1 2XD     -0.536100
     16 C2          1.2980   -0.5880    2.5400 ca        1 2XD     -0.076000
     17 C1          2.3150    0.2600    2.1150 ca        1 2XD     -0.225000
     18 C           2.4950    0.4930    0.7410 ca        1 2XD      0.167100
     19 O           3.4630    1.3450    0.2710 oh        1 2XD     -0.476100
     20 N           1.1730    0.1260   -4.7990 nh        1 2XD     -0.630400
     21 H1         -0.0350   -1.4380   -0.4860 ha        1 2XD      0.139000
     22 H3         -0.0920    1.3170   -6.0350 h1        1 2XD      0.073200
     23 H4         -0.1740    0.8010   -1.7270 ha        1 2XD      0.139000
     24 H5         -0.6040    0.9180   -4.0040 h4        1 2XD      0.122000
     25 H6          2.8160   -0.9420   -5.4820 h1        1 2XD      0.078200
     26 H7          2.3390   -1.2990   -3.7600 h1        1 2XD      0.078200
     27 H8          1.9330   -3.1560   -5.5090 hc        1 2XD      0.055200
     28 H9          0.5410   -2.7560   -4.4250 hc        1 2XD      0.055200
     29 H10        -0.4500   -3.9320   -7.4330 h4        1 2XD      0.178000
     30 H11        -1.5690   -2.2010   -8.9850 hn        1 2XD      0.321700
     31 H12        -0.3510   -1.8630    1.9500 ha        1 2XD      0.135000
     32 H13         1.1580   -0.7760    3.6150 ha        1 2XD      0.133000
     33 H14         2.9790    0.7440    2.8450 ha        1 2XD      0.135000
     34 H15         4.0020    1.6300    1.0240 ho        1 2XD      0.419000
     35 H2          1.5340    0.8540   -6.7210 h1        1 2XD      0.073200
@<TRIPOS>BOND
     1    1    3 ar  
     2    1   14 ar  
     3    1   21 1   
     4    2   11 1   
     5    2   20 1   
     6    2   22 1   
     7    2   35 1   
     8    3    4 1   
     9    3   18 ar  
    10    4    6 1   
    11    4   15 2   
    12    5    9 1   
    13    5   10 2   
    14    5   11 1   
    15    6    7 2   
    16    6   23 1   
    17    7   20 1   
    18    7   24 1   
    19    8    9 1   
    20    8   20 1   
    21    8   25 1   
    22    8   26 1   
    23    9   27 1   
    24    9   28 1   
    25   10   12 1   
    26   10   29 1   
    27   11   13 2   
    28   12   13 1   
    29   12   30 1   
    30   14   16 ar  
    31   14   31 1   
    32   16   17 ar  
    33   16   32 1   
    34   17   18 ar  
    35   17   33 1   
    36   18   19 1   
    37   19   34 1   
@<TRIPOS>SUBSTRUCTURE
     1 2XD         1 TEMP              0 ****  ****    0 ROOT
