@<TRIPOS>MOLECULE
2XE
   13    13     1     0     0
SMALL
bcc


@<TRIPOS>ATOM
      1 SAH         0.0590    0.3130   -0.3340 sh        1 2XE     -0.236700
      2 CAI         4.5270   -0.0420    0.0030 ca        1 2XE     -0.037900
      3 BR          6.3890   -0.1920    0.0980 br        1 2XE     -0.085100
      4 CAK         3.7720    0.0950    1.1710 ca        1 2XE     -0.085000
      5 CAL         2.3860    0.2070    1.0970 ca        1 2XE     -0.134500
      6 CAM         1.7360    0.1840   -0.1410 ca        1 2XE      0.024900
      7 CAN         2.4980    0.0470   -1.3090 ca        1 2XE     -0.134500
      8 CAO         3.8830   -0.0650   -1.2390 ca        1 2XE     -0.085000
      9 H1         -0.3120    0.4230    0.9300 hs        1 2XE      0.191800
     10 H2          4.2650    0.1150    2.1560 ha        1 2XE      0.149000
     11 H3          1.8050    0.3130    2.0260 ha        1 2XE      0.142500
     12 H4          1.9960    0.0280   -2.2890 ha        1 2XE      0.142500
     13 H5          4.4650   -0.1720   -2.1680 ha        1 2XE      0.149000
@<TRIPOS>BOND
     1    1    6 1   
     2    1    9 1   
     3    2    3 1   
     4    2    4 ar  
     5    2    8 ar  
     6    4    5 ar  
     7    4   10 1   
     8    5    6 ar  
     9    5   11 1   
    10    6    7 ar  
    11    7    8 ar  
    12    7   12 1   
    13    8   13 1   
@<TRIPOS>SUBSTRUCTURE
     1 2XE         1 TEMP              0 ****  ****    0 ROOT
