@<TRIPOS>MOLECULE
2XE
   13    13     1     0     0
SMALL
bcc


@<TRIPOS>ATOM
      1 SAH         0.0480    0.2740   -0.2570 sh        1 2XE     -0.236700
      2 CAI         4.5270   -0.0250   -0.0420 ca        1 2XE     -0.037900
      3 Br          6.3940   -0.1540    0.0030 br        1 2XE     -0.085100
      4 CAK         3.8060    0.1400    1.1440 ca        1 2XE     -0.085000
      5 CAL         2.4170    0.2360    1.1080 ca        1 2XE     -0.134500
      6 CAM         1.7310    0.1680   -0.1090 ca        1 2XE      0.024900
      7 CAN         2.4610    0.0020   -1.2950 ca        1 2XE     -0.134500
      8 CAO         3.8480   -0.0940   -1.2630 ca        1 2XE     -0.085000
      9 H1         -0.2870    0.4200    1.0130 hs        1 2XE      0.191800
     10 H2          4.3270    0.1960    2.1120 ha        1 2XE      0.149000
     11 H3          1.8620    0.3660    2.0490 ha        1 2XE      0.142500
     12 H4          1.9300   -0.0520   -2.2590 ha        1 2XE      0.142500
     13 H5          4.4040   -0.2240   -2.2050 ha        1 2XE      0.149000
@<TRIPOS>BOND
     1    1    6 1   
     2    1    9 1   
     3    2    3 1   
     4    2    4 ar  
     5    2    8 ar  
     6    4    5 ar  
     7    4   10 1   
     8    5    6 ar  
     9    5   11 1   
    10    6    7 ar  
    11    7    8 ar  
    12    7   12 1   
    13    8   13 1   
@<TRIPOS>SUBSTRUCTURE
     1 2XE         1 TEMP              0 ****  ****    0 ROOT
