@<TRIPOS>MOLECULE
2XF
   60    62     1     0     0
SMALL
bcc


@<TRIPOS>ATOM
      1 C1         -0.2540   -0.0760   -0.0010 c3        1 2XF      0.117500
      2 C2          1.1150   -0.6700   -0.4430 c3        1 2XF      0.157800
      3 N3          1.9550   -0.8580    0.7150 n3        1 2XF     -0.828200
      4 C4          1.3980   -1.7500    1.7050 c3        1 2XF      0.163800
      5 C5          0.0370   -1.2140    2.2020 c3        1 2XF     -0.136700
      6 C6         -0.9120   -1.0100    1.0220 c3        1 2XF     -0.103400
      7 C7         -0.5780   -2.2020    3.1710 c         1 2XF      0.549100
      8 N8          0.0010   -2.2090    4.5690 n4        1 2XF     -0.561200
      9 O9         -1.4990   -2.9660    2.9210 o         1 2XF     -0.405100
     10 N10        -1.1450    0.1570   -1.1880 n4        1 2XF     -0.656800
     11 C11        -0.7240   -1.2170    5.3930 cx        1 2XF     -0.014500
     12 C12         0.0090   -3.5910    5.1650 c3        1 2XF      0.167100
     13 C13        -1.7490   -1.5830    6.4480 cx        1 2XF     -0.087400
     14 C14        -0.4300   -1.0150    6.8680 cx        1 2XF     -0.087400
     15 C15         1.0290   -4.4990    4.5570 ca        1 2XF     -0.166300
     16 C16         0.6020   -5.7290    4.0500 ca        1 2XF     -0.085000
     17 C17         1.5330   -6.6670    3.6000 ca        1 2XF     -0.101000
     18 C18         2.8940   -6.3820    3.6430 ca        1 2XF     -0.075000
     19 C19         3.3390   -5.1440    4.1330 ca        1 2XF      0.027400
     20 C20         2.4040   -4.2040    4.5900 ca        1 2XF     -0.005600
     21 CL1         2.9390   -2.7030    5.1980 cl        1 2XF     -0.070400
     22 CL2         4.9930   -4.8180    4.1670 cl        1 2XF     -0.002400
     23 C23        -0.8710    1.5010   -1.8490 c         1 2XF      0.639100
     24 O24        -0.8240    2.5140   -1.1690 o         1 2XF     -0.426000
     25 O25        -0.7280    1.3230   -3.1560 os        1 2XF     -0.423900
     26 C26        -0.5510    2.5290   -4.0560 c3        1 2XF      0.211800
     27 C27        -0.4670    1.8530   -5.4120 c3        1 2XF     -0.134100
     28 C28        -1.7700    3.4110   -3.9210 c3        1 2XF     -0.134100
     29 C29         0.7330    3.2270   -3.6740 c3        1 2XF     -0.134100
     30 H1         -0.0820    0.9400    0.4790 hx        1 2XF      0.144700
     31 H2          1.6380    0.0550   -1.1310 h1        1 2XF      0.068700
     32 H3          0.9250   -1.6290   -1.0100 h1        1 2XF      0.068700
     33 H4          2.8920   -1.1120    0.4610 hn        1 2XF      0.432800
     34 H6          1.2420   -2.7990    1.3160 h1        1 2XF      0.066200
     35 H7          2.1270   -1.7950    2.5640 h1        1 2XF      0.066200
     36 H8          0.1940   -0.2240    2.7220 hc        1 2XF      0.114700
     37 H9         -1.8770   -0.5730    1.3940 hc        1 2XF      0.086200
     38 H10        -1.1430   -2.0070    0.5570 hc        1 2XF      0.086200
     39 H11        -1.0180   -0.5900   -1.8840 hn        1 2XF      0.470300
     40 H12        -0.9130   -0.3030    4.7800 hx        1 2XF      0.122700
     41 H13         0.2310   -3.4800    6.2690 hx        1 2XF      0.124200
     42 H14        -1.0290   -4.0230    5.0460 hx        1 2XF      0.124200
     43 H15        -1.9750   -2.6440    6.6660 hc        1 2XF      0.116450
     44 H16        -2.6620   -0.9560    6.5030 hc        1 2XF      0.116450
     45 H17         0.3000   -1.6620    7.3910 hc        1 2XF      0.116450
     46 H18        -0.3700    0.0320    7.2300 hc        1 2XF      0.116450
     47 H19        -0.4730   -5.9750    4.0210 ha        1 2XF      0.161000
     48 H20         1.1880   -7.6440    3.2210 ha        1 2XF      0.177000
     49 H21         3.6300   -7.1320    3.3010 ha        1 2XF      0.186000
     50 H22        -0.3330    2.6460   -6.1890 hc        1 2XF      0.077922
     51 H23         0.4010    1.1530   -5.4540 hc        1 2XF      0.077922
     52 H24        -1.4030    1.2860   -5.6320 hc        1 2XF      0.077922
     53 H25        -1.7010    4.2390   -4.6720 hc        1 2XF      0.077922
     54 H26        -1.8260    3.8670   -2.9020 hc        1 2XF      0.077922
     55 H27        -2.7030    2.8320   -4.1200 hc        1 2XF      0.077922
     56 H28         0.9330    4.0440   -4.4120 hc        1 2XF      0.077922
     57 H29         0.6560    3.6840   -2.6570 hc        1 2XF      0.077922
     58 H30         1.5930    2.5150   -3.6950 hc        1 2XF      0.077922
     59 H81         0.9950   -1.8970    4.5160 hn        1 2XF      0.467800
     60 H102       -2.1250    0.1600   -0.8820 hn        1 2XF      0.470300
@<TRIPOS>BOND
     1    1    2 1   
     2    1    6 1   
     3    1   10 1   
     4    1   30 1   
     5    2    3 1   
     6    2   31 1   
     7    2   32 1   
     8    3    4 1   
     9    3   33 1   
    10    4    5 1   
    11    4   34 1   
    12    4   35 1   
    13    5    6 1   
    14    5    7 1   
    15    5   36 1   
    16    6   37 1   
    17    6   38 1   
    18    7    8 1   
    19    7    9 2   
    20    8   11 1   
    21    8   12 1   
    22    8   59 1   
    23   10   23 1   
    24   10   39 1   
    25   10   60 1   
    26   11   13 1   
    27   11   14 1   
    28   11   40 1   
    29   12   15 1   
    30   12   41 1   
    31   12   42 1   
    32   13   14 1   
    33   13   43 1   
    34   13   44 1   
    35   14   45 1   
    36   14   46 1   
    37   15   16 ar  
    38   15   20 ar  
    39   16   17 ar  
    40   16   47 1   
    41   17   18 ar  
    42   17   48 1   
    43   18   19 ar  
    44   18   49 1   
    45   19   20 ar  
    46   19   22 1   
    47   20   21 1   
    48   23   24 2   
    49   23   25 1   
    50   25   26 1   
    51   26   27 1   
    52   26   28 1   
    53   26   29 1   
    54   27   50 1   
    55   27   51 1   
    56   27   52 1   
    57   28   53 1   
    58   28   54 1   
    59   28   55 1   
    60   29   56 1   
    61   29   57 1   
    62   29   58 1   
@<TRIPOS>SUBSTRUCTURE
     1 2XF         1 TEMP              0 ****  ****    0 ROOT
