@<TRIPOS>MOLECULE
2XF
   60    62     1     0     0
SMALL
bcc


@<TRIPOS>ATOM
      1 C1         -0.2510   -0.1440    0.1520 c3        1 2XF      0.117500
      2 C2          1.0220   -0.8440   -0.4050 c3        1 2XF      0.157800
      3 N3          1.9540   -1.0770    0.6710 n7        1 2XF     -0.828200
      4 C4          1.4320   -1.9120    1.7280 c3        1 2XF      0.164800
      5 C5          0.1700   -1.2680    2.3420 c3        1 2XF     -0.138700
      6 C6         -0.8730   -1.0100    1.2560 c3        1 2XF     -0.103400
      7 C7         -0.4180   -2.1930    3.3890 c         1 2XF      0.544100
      8 N8          0.2780   -2.2130    4.7260 nx        1 2XF     -0.564200
      9 O9         -1.4030   -2.9020    3.2360 o         1 2XF     -0.414100
     10 N10        -1.2340    0.1350   -0.9500 ny        1 2XF     -0.657800
     11 C11        -0.3760   -1.3210    5.7100 cx        1 2XF      0.000500
     12 C12         0.3720   -3.6080    5.3000 c3        1 2XF      0.177100
     13 C13        -1.3060   -0.1960    5.3060 cx        1 2XF     -0.098400
     14 C14        -1.8590   -1.3950    6.0120 cx        1 2XF     -0.098400
     15 C15         1.3520   -4.4830    4.5920 ca        1 2XF     -0.169300
     16 C16         0.9090   -5.7160    4.1030 ca        1 2XF     -0.085000
     17 C17         1.8190   -6.6280    3.5640 ca        1 2XF     -0.101000
     18 C18         3.1720   -6.3140    3.4980 ca        1 2XF     -0.075000
     19 C19         3.6320   -5.0730    3.9690 ca        1 2XF      0.026400
     20 C20         2.7190   -4.1600    4.5150 ca        1 2XF     -0.004600
     21 Cl1         3.2720   -2.6570    5.1040 cl        1 2XF     -0.069400
     22 Cl2         5.2760   -4.7130    3.8720 cl        1 2XF     -0.001400
     23 C23        -0.9410    1.4540   -1.6520 c         1 2XF      0.640100
     24 O24        -0.7730    2.4690   -0.9930 o         1 2XF     -0.426000
     25 O25        -0.9240    1.2560   -2.9630 os        1 2XF     -0.423900
     26 C26        -0.7550    2.4420   -3.8930 c3        1 2XF      0.212800
     27 C27        -0.8330    1.7490   -5.2410 c3        1 2XF     -0.134100
     28 C28        -1.9020    3.3970   -3.6640 c3        1 2XF     -0.134100
     29 C29         0.5970    3.0620   -3.6350 c3        1 2XF     -0.134100
     30 H1          0.0400    0.8630    0.5910 hx        1 2XF      0.144700
     31 H2          0.7090   -1.7960   -0.9300 h1        1 2XF      0.068700
     32 H3          1.5270   -0.1710   -1.1560 h1        1 2XF      0.068700
     33 H4          2.8420   -1.4010    0.3350 hn        1 2XF      0.432800
     34 H6          2.2350   -2.0020    2.5140 h1        1 2XF      0.066700
     35 H7          1.1610   -2.9510    1.3750 h1        1 2XF      0.066700
     36 H8          0.4480   -0.2850    2.8230 hc        1 2XF      0.116700
     37 H9         -1.7600   -0.4920    1.7100 hc        1 2XF      0.085200
     38 H10        -1.2240   -1.9930    0.8380 hc        1 2XF      0.085200
     39 H11        -2.1790    0.2020   -0.5540 hn        1 2XF      0.470300
     40 H12         0.3280   -1.1460    6.5610 hx        1 2XF      0.152700
     41 H13        -0.6650   -4.0540    5.2700 hx        1 2XF      0.126200
     42 H14         0.6860   -3.4990    6.3820 hx        1 2XF      0.126200
     43 H15        -1.5590   -0.0410    4.2400 hc        1 2XF      0.111450
     44 H16        -1.2050    0.7660    5.8470 hc        1 2XF      0.111450
     45 H17        -2.1690   -1.3170    7.0740 hc        1 2XF      0.111450
     46 H18        -2.4990   -2.1020    5.4500 hc        1 2XF      0.111450
     47 H19        -0.1580   -5.9850    4.1620 ha        1 2XF      0.160000
     48 H20         1.4630   -7.6070    3.2010 ha        1 2XF      0.177000
     49 H21         3.8930   -7.0430    3.0870 ha        1 2XF      0.186000
     50 H22        -0.7200    2.5260   -6.0390 hc        1 2XF      0.078033
     51 H23        -1.8170    1.2380   -5.3700 hc        1 2XF      0.078033
     52 H24        -0.0150    0.9970   -5.3490 hc        1 2XF      0.078033
     53 H25        -1.8510    4.2120   -4.4300 hc        1 2XF      0.078033
     54 H26        -2.8830    2.8740   -3.7720 hc        1 2XF      0.078033
     55 H27        -1.8410    3.8650   -2.6510 hc        1 2XF      0.078033
     56 H28         1.4080    2.2990   -3.7210 hc        1 2XF      0.078033
     57 H29         0.6370    3.5320   -2.6220 hc        1 2XF      0.078033
     58 H30         0.7790    3.8600   -4.3990 hc        1 2XF      0.078033
     59 H81         1.2520   -1.8680    4.5900 hn        1 2XF      0.469800
     60 H102       -1.2190   -0.6240   -1.6440 hn        1 2XF      0.470300
@<TRIPOS>BOND
     1    1    2 1   
     2    1    6 1   
     3    1   10 1   
     4    1   30 1   
     5    2    3 1   
     6    2   31 1   
     7    2   32 1   
     8    3    4 1   
     9    3   33 1   
    10    4    5 1   
    11    4   34 1   
    12    4   35 1   
    13    5    6 1   
    14    5    7 1   
    15    5   36 1   
    16    6   37 1   
    17    6   38 1   
    18    7    8 1   
    19    7    9 2   
    20    8   11 1   
    21    8   12 1   
    22    8   59 1   
    23   10   23 1   
    24   10   39 1   
    25   10   60 1   
    26   11   13 1   
    27   11   14 1   
    28   11   40 1   
    29   12   15 1   
    30   12   41 1   
    31   12   42 1   
    32   13   14 1   
    33   13   43 1   
    34   13   44 1   
    35   14   45 1   
    36   14   46 1   
    37   15   16 ar  
    38   15   20 ar  
    39   16   17 ar  
    40   16   47 1   
    41   17   18 ar  
    42   17   48 1   
    43   18   19 ar  
    44   18   49 1   
    45   19   20 ar  
    46   19   22 1   
    47   20   21 1   
    48   23   24 2   
    49   23   25 1   
    50   25   26 1   
    51   26   27 1   
    52   26   28 1   
    53   26   29 1   
    54   27   50 1   
    55   27   51 1   
    56   27   52 1   
    57   28   53 1   
    58   28   54 1   
    59   28   55 1   
    60   29   56 1   
    61   29   57 1   
    62   29   58 1   
@<TRIPOS>SUBSTRUCTURE
     1 2XF         1 TEMP              0 ****  ****    0 ROOT
