@<TRIPOS>MOLECULE
2XF
   58    60     1     0     0
SMALL
bcc


@<TRIPOS>ATOM
      1 C1          0.2790   -0.0710   -0.2320 c3        1 2XF      0.100700
      2 C2          1.7770   -0.3910   -0.5100 c3        1 2XF      0.133800
      3 N3          2.5120   -0.6450    0.7110 n3        1 2XF     -0.816200
      4 C4          1.9420   -1.6910    1.5360 c3        1 2XF      0.164800
      5 C5          0.4600   -1.4310    1.8530 c3        1 2XF     -0.127700
      6 C6         -0.3340   -1.2290    0.5720 c3        1 2XF     -0.080400
      7 C7         -0.0780   -2.6480    2.5990 c         1 2XF      0.668100
      8 N8         -0.1310   -2.6350    3.9900 n         1 2XF     -0.441800
      9 O9         -0.4740   -3.6530    1.9720 o         1 2XF     -0.619100
     10 N10        -0.4660    0.1720   -1.4480 n         1 2XF     -0.532900
     11 C11         0.4180   -1.5490    4.7350 cx        1 2XF      0.026700
     12 C12        -0.5340   -3.8290    4.7020 c3        1 2XF      0.135300
     13 C13        -0.2700   -0.1950    4.8310 cx        1 2XF     -0.127900
     14 C14        -0.1820   -1.0670    6.0430 cx        1 2XF     -0.127900
     15 C15         0.5780   -4.7990    5.0060 ca        1 2XF     -0.097300
     16 C16         1.0830   -5.5700    3.9520 ca        1 2XF     -0.109000
     17 C17         2.0880   -6.5080    4.1730 ca        1 2XF     -0.126000
     18 C18         2.6030   -6.6930    5.4540 ca        1 2XF     -0.114000
     19 C19         2.1060   -5.9340    6.5170 ca        1 2XF      0.011400
     20 C20         1.0930   -4.9840    6.2980 ca        1 2XF      0.029400
     21 CL1         0.5040   -4.0820    7.6140 cl        1 2XF     -0.076400
     22 CL2         2.7520   -6.1840    8.0670 cl        1 2XF     -0.073400
     23 C23        -0.6050    1.4640   -1.9270 c         1 2XF      0.743100
     24 O24        -0.4470    2.5210   -1.2950 o         1 2XF     -0.589000
     25 O25        -1.0040    1.4710   -3.2430 os        1 2XF     -0.453900
     26 C26        -1.4400    2.7160   -3.8470 c3        1 2XF      0.186800
     27 C27        -1.8830    2.2760   -5.2420 c3        1 2XF     -0.114100
     28 C28        -2.6110    3.3080   -3.0820 c3        1 2XF     -0.114100
     29 C29        -0.2820    3.6960   -3.9450 c3        1 2XF     -0.114100
     30 H1          0.2290    0.8740    0.3920 h1        1 2XF      0.100700
     31 H2          1.8300   -1.2620   -1.2280 h1        1 2XF      0.036700
     32 H3          2.2550    0.4990   -1.0070 h1        1 2XF      0.036700
     33 H4          3.4670   -0.8630    0.4960 hn        1 2XF      0.371800
     34 H6          2.0210   -2.7110    1.0560 h1        1 2XF      0.040700
     35 H7          2.5230   -1.7140    2.5000 h1        1 2XF      0.040700
     36 H8          0.3730   -0.5000    2.4800 hc        1 2XF      0.087700
     37 H9         -0.3250   -2.1760   -0.0290 hc        1 2XF      0.066200
     38 H10        -1.4010   -0.9990    0.8250 hc        1 2XF      0.066200
     39 H11        -0.5050   -0.5670   -2.1120 hn        1 2XF      0.316500
     40 H12         1.5330   -1.5310    4.6670 h1        1 2XF      0.079700
     41 H13        -1.2950   -4.3710    4.0640 h1        1 2XF      0.078200
     42 H14        -1.0430   -3.5140    5.6580 h1        1 2XF      0.078200
     43 H15         0.3620    0.7080    4.7600 hc        1 2XF      0.080950
     44 H16        -1.2560   -0.0480    4.3550 hc        1 2XF      0.080950
     45 H17         0.5190   -0.8040    6.8560 hc        1 2XF      0.080950
     46 H18        -1.1070   -1.5280    6.4340 hc        1 2XF      0.080950
     47 H19         0.6680   -5.4240    2.9390 ha        1 2XF      0.169000
     48 H20         2.4750   -7.1080    3.3350 ha        1 2XF      0.143000
     49 H21         3.3960   -7.4350    5.6310 ha        1 2XF      0.151000
     50 H22        -2.7140    1.5350   -5.1660 hc        1 2XF      0.051922
     51 H23        -2.2350    3.1680   -5.8100 hc        1 2XF      0.051922
     52 H24        -1.0310    1.8040   -5.7850 hc        1 2XF      0.051922
     53 H25        -2.2790    3.6740   -2.0800 hc        1 2XF      0.051922
     54 H26        -3.4050    2.5370   -2.9390 hc        1 2XF      0.051922
     55 H27        -3.0350    4.1650   -3.6580 hc        1 2XF      0.051922
     56 H28         0.5960    3.2040   -4.4270 hc        1 2XF      0.051922
     57 H29        -0.5910    4.5740   -4.5610 hc        1 2XF      0.051922
     58 H30         0.0160    4.0510   -2.9290 hc        1 2XF      0.051922
@<TRIPOS>BOND
     1    1    2 1   
     2    1    6 1   
     3    1   10 1   
     4    1   30 1   
     5    2    3 1   
     6    2   31 1   
     7    2   32 1   
     8    3    4 1   
     9    3   33 1   
    10    4    5 1   
    11    4   34 1   
    12    4   35 1   
    13    5    6 1   
    14    5    7 1   
    15    5   36 1   
    16    6   37 1   
    17    6   38 1   
    18    7    8 1   
    19    7    9 2   
    20    8   11 1   
    21    8   12 1   
    22   10   23 1   
    23   10   39 1   
    24   11   13 1   
    25   11   14 1   
    26   11   40 1   
    27   12   15 1   
    28   12   41 1   
    29   12   42 1   
    30   13   14 1   
    31   13   43 1   
    32   13   44 1   
    33   14   45 1   
    34   14   46 1   
    35   15   16 ar  
    36   15   20 ar  
    37   16   17 ar  
    38   16   47 1   
    39   17   18 ar  
    40   17   48 1   
    41   18   19 ar  
    42   18   49 1   
    43   19   20 ar  
    44   19   22 1   
    45   20   21 1   
    46   23   24 2   
    47   23   25 1   
    48   25   26 1   
    49   26   27 1   
    50   26   28 1   
    51   26   29 1   
    52   27   50 1   
    53   27   51 1   
    54   27   52 1   
    55   28   53 1   
    56   28   54 1   
    57   28   55 1   
    58   29   56 1   
    59   29   57 1   
    60   29   58 1   
@<TRIPOS>SUBSTRUCTURE
     1 2XF         1 TEMP              0 ****  ****    0 ROOT
