@<TRIPOS>MOLECULE
2XG
   13    13     1     0     0
SMALL
bcc


@<TRIPOS>ATOM
      1 SAG         0.0620   -0.3260   -0.3380 sh        1 2XG     -0.227700
      2 CAH         4.5340    0.0600    0.0010 ca        1 2XG      0.082900
      3 FAI         5.8790    0.1780    0.0690 f         1 2XG     -0.123900
      4 CAJ         3.7690   -0.0890    1.1870 ca        1 2XG      0.112900
      5 FAK         4.3810   -0.1140    2.3920 f         1 2XG     -0.123900
      6 CAL         2.3720   -0.2110    1.1050 ca        1 2XG     -0.166000
      7 CAM         1.7370   -0.1860   -0.1370 ca        1 2XG      0.023900
      8 CAN         2.4980   -0.0380   -1.3060 ca        1 2XG     -0.111000
      9 CAO         3.8790    0.0840   -1.2430 ca        1 2XG     -0.125000
     10 H1         -0.3150   -0.4450    0.9240 hs        1 2XG      0.193800
     11 H2          1.7980   -0.3260    2.0360 ha        1 2XG      0.152000
     12 H3          1.9920   -0.0180   -2.2850 ha        1 2XG      0.154000
     13 H4          4.4750    0.2000   -2.1610 ha        1 2XG      0.157000
@<TRIPOS>BOND
     1    1    7 1   
     2    1   10 1   
     3    2    3 1   
     4    2    4 ar  
     5    2    9 ar  
     6    4    5 1   
     7    4    6 ar  
     8    6    7 ar  
     9    6   11 1   
    10    7    8 ar  
    11    8    9 ar  
    12    8   12 1   
    13    9   13 1   
@<TRIPOS>SUBSTRUCTURE
     1 2XG         1 TEMP              0 ****  ****    0 ROOT
