@<TRIPOS>MOLECULE
2XH
   19    20     1     0     0
SMALL
bcc


@<TRIPOS>ATOM
      1 C14         0.0130   -0.0060   -0.0700 ca        1 2XH     -0.126000
      2 C5          1.4250    0.0690   -0.0470 ca        1 2XH     -0.123000
      3 C6          2.0980    0.0680    1.1510 ca        1 2XH     -0.121000
      4 C11         1.3880   -0.0100    2.3800 ca        1 2XH     -0.025000
      5 C7          2.0700   -0.0130    3.6280 ca        1 2XH     -0.123000
      6 C8          1.3630   -0.0890    4.8020 ca        1 2XH     -0.113000
      7 C9         -0.0480   -0.1650    4.7850 ca        1 2XH     -0.148000
      8 C10        -0.7410   -0.1640    3.5930 ca        1 2XH      0.029900
      9 C12        -0.0280   -0.0860    2.3570 ca        1 2XH     -0.023000
     10 C13        -0.6980   -0.0820    1.1030 ca        1 2XH     -0.113000
     11 SAH        -2.4350   -0.2530    3.4960 sh        1 2XH     -0.247700
     12 H1         -0.5070   -0.0040   -1.0400 ha        1 2XH      0.134000
     13 H2          1.9740    0.1290   -0.9980 ha        1 2XH      0.133000
     14 H3          3.1960    0.1260    1.1810 ha        1 2XH      0.133000
     15 H4          3.1680    0.0460    3.6300 ha        1 2XH      0.134000
     16 H5          1.8820   -0.0910    5.7720 ha        1 2XH      0.134000
     17 H6         -0.5820   -0.2240    5.7450 ha        1 2XH      0.130000
     18 H7         -1.8000   -0.1410    1.0880 ha        1 2XH      0.146000
     19 H8         -2.7300   -0.3100    4.7830 hs        1 2XH      0.186800
@<TRIPOS>BOND
     1    1    2 ar  
     2    1   10 ar  
     3    1   12 1   
     4    2    3 ar  
     5    2   13 1   
     6    3    4 ar  
     7    3   14 1   
     8    4    5 ar  
     9    4    9 ar  
    10    5    6 ar  
    11    5   15 1   
    12    6    7 ar  
    13    6   16 1   
    14    7    8 ar  
    15    7   17 1   
    16    8    9 ar  
    17    8   11 1   
    18    9   10 ar  
    19   10   18 1   
    20   11   19 1   
@<TRIPOS>SUBSTRUCTURE
     1 2XH         1 TEMP              0 ****  ****    0 ROOT
