@<TRIPOS>MOLECULE
2XJ
   61    63     1     0     0
SMALL
bcc


@<TRIPOS>ATOM
      1 CAC        -0.3580   -0.3230   -0.5300 c3        1 2XJ     -0.122100
      2 CBF         1.1170   -0.2060   -0.1790 c3        1 2XJ      0.150800
      3 CAD         1.3200   -0.3300    1.3290 c3        1 2XJ     -0.122100
      4 OAG         1.8830   -1.2120   -0.8420 oh        1 2XJ     -0.593800
      5 CAN         1.7110    1.1340   -0.6500 c3        1 2XJ      0.131400
      6 OAT         1.1090    1.4450   -1.9130 os        1 2XJ     -0.303900
      7 CBB         1.7280    2.4500   -2.6270 ca        1 2XJ      0.102100
      8 CAK         2.6300    3.3650   -2.0870 ca        1 2XJ     -0.135000
      9 CBA         1.3530    2.5450   -3.9950 ca        1 2XJ      0.116100
     10 OAS         0.4440    1.6030   -4.4280 os        1 2XJ     -0.299900
     11 CAB         0.0960    1.6610   -5.8070 c3        1 2XJ      0.109700
     12 CAI         1.8990    3.5540   -4.7910 ca        1 2XJ     -0.183000
     13 CAH         2.8070    4.4590   -4.2440 ca        1 2XJ     -0.118000
     14 CAY         3.1750    4.3750   -2.8970 ca        1 2XJ     -0.134500
     15 CBE         4.1140    5.3390   -2.3460 cc        1 2XJ      0.461900
     16 NAR         4.7710    5.2070   -1.1900 nd        1 2XJ     -0.618000
     17 SAV         4.4610    6.8070   -3.1890 ss        1 2XJ     -0.093300
     18 CBD         5.5260    7.2880   -1.9850 cc        1 2XJ     -0.167700
     19 CAM         6.2670    8.5590   -2.0160 c3        1 2XJ     -0.012100
     20 CAL         7.6620    8.4000   -2.5960 c3        1 2XJ     -0.077400
     21 CAA         8.4000    9.7140   -2.5980 c3        1 2XJ     -0.095100
     22 CBC         5.5790    6.3200   -0.9750 cd        1 2XJ      0.337600
     23 CAO         6.4280    6.4220    0.2320 c3        1 2XJ     -0.046600
     24 SAU         5.4090    7.1370    1.5030 ss        1 2XJ     -0.240400
     25 C4          6.4340    7.3760    2.8390 ca        1 2XJ      0.577600
     26 C5          5.8220    7.9520    3.9660 ca        1 2XJ     -0.471600
     27 N3          7.7380    7.0270    2.8050 nb        1 2XJ     -0.805000
     28 C2          8.4720    7.2880    3.9550 ca        1 2XJ      0.906900
     29 NAF         9.8530    7.0460    3.9050 nh        1 2XJ     -0.924500
     30 N1          7.9700    7.8300    5.1240 nb        1 2XJ     -0.821000
     31 C6          6.6370    8.1520    5.1210 ca        1 2XJ      0.713200
     32 NAE         6.0560    8.6210    6.2960 nh        1 2XJ     -0.940500
     33 H1         -0.4810   -0.3310   -1.6410 hc        1 2XJ      0.047867
     34 H2         -0.7830   -1.2640   -0.1070 hc        1 2XJ      0.047867
     35 H3         -0.9160    0.5490   -0.1150 hc        1 2XJ      0.047867
     36 H4          0.9820   -1.3360    1.6740 hc        1 2XJ      0.047867
     37 H5          2.4000   -0.2120    1.5810 hc        1 2XJ      0.047867
     38 H6          0.7300    0.4510    1.8630 hc        1 2XJ      0.047867
     39 H7          1.4190   -2.0470   -0.7140 ho        1 2XJ      0.401000
     40 H8          1.4520    1.9430    0.0820 h1        1 2XJ      0.055700
     41 H9          2.8220    1.0370   -0.7580 h1        1 2XJ      0.055700
     42 H10         2.9200    3.3010   -1.0270 ha        1 2XJ      0.164000
     43 H11         0.9970    1.5150   -6.4510 h1        1 2XJ      0.045033
     44 H12        -0.6170    0.8060   -5.9280 h1        1 2XJ      0.045033
     45 H13        -0.4060    2.6290   -6.0480 h1        1 2XJ      0.045033
     46 H14         1.6240    3.6400   -5.8520 ha        1 2XJ      0.142000
     47 H15         3.2360    5.2440   -4.8870 ha        1 2XJ      0.135000
     48 H16         5.6990    9.3160   -2.6240 hc        1 2XJ      0.059700
     49 H17         6.3450    8.9710   -0.9710 hc        1 2XJ      0.059700
     50 H18         7.5910    8.0040   -3.6430 hc        1 2XJ      0.045200
     51 H19         8.2330    7.6460   -1.9940 hc        1 2XJ      0.045200
     52 H20         9.4210    9.5820   -3.0290 hc        1 2XJ      0.036033
     53 H21         7.8550   10.4730   -3.2100 hc        1 2XJ      0.036033
     54 H22         8.5030   10.1110   -1.5590 hc        1 2XJ      0.036033
     55 H23         7.3150    7.0710    0.0260 h1        1 2XJ      0.094200
     56 H24         6.8050    5.4200    0.5580 h1        1 2XJ      0.094200
     57 H25         4.7590    8.2160    3.9560 ha        1 2XJ      0.158000
     58 H26        10.1590    6.4140    3.2020 hn        1 2XJ      0.421800
     59 H27        10.3160    6.9730    4.7820 hn        1 2XJ      0.421800
     60 H28         5.2210    9.1430    6.1780 hn        1 2XJ      0.417800
     61 H29         6.6630    8.9300    7.0200 hn        1 2XJ      0.417800
@<TRIPOS>BOND
     1    1    2 1   
     2    1   33 1   
     3    1   34 1   
     4    1   35 1   
     5    2    3 1   
     6    2    4 1   
     7    2    5 1   
     8    3   36 1   
     9    3   37 1   
    10    3   38 1   
    11    4   39 1   
    12    5    6 1   
    13    5   40 1   
    14    5   41 1   
    15    6    7 1   
    16    7    8 ar  
    17    7    9 ar  
    18    8   14 ar  
    19    8   42 1   
    20    9   10 1   
    21    9   12 ar  
    22   10   11 1   
    23   11   43 1   
    24   11   44 1   
    25   11   45 1   
    26   12   13 ar  
    27   12   46 1   
    28   13   14 ar  
    29   13   47 1   
    30   14   15 1   
    31   15   16 2   
    32   15   17 1   
    33   16   22 1   
    34   17   18 1   
    35   18   19 1   
    36   18   22 2   
    37   19   20 1   
    38   19   48 1   
    39   19   49 1   
    40   20   21 1   
    41   20   50 1   
    42   20   51 1   
    43   21   52 1   
    44   21   53 1   
    45   21   54 1   
    46   22   23 1   
    47   23   24 1   
    48   23   55 1   
    49   23   56 1   
    50   24   25 1   
    51   25   26 ar  
    52   25   27 ar  
    53   26   31 ar  
    54   26   57 1   
    55   27   28 ar  
    56   28   29 1   
    57   28   30 ar  
    58   29   58 1   
    59   29   59 1   
    60   30   31 ar  
    61   31   32 1   
    62   32   60 1   
    63   32   61 1   
@<TRIPOS>SUBSTRUCTURE
     1 2XJ         1 TEMP              0 ****  ****    0 ROOT
