@<TRIPOS>MOLECULE
2XJ
   61    63     1     0     0
SMALL
bcc


@<TRIPOS>ATOM
      1 CAC        -0.3390   -0.3440   -0.5380 c3        1 2XJ     -0.122100
      2 CBF         1.1370   -0.2240   -0.1930 c3        1 2XJ      0.150800
      3 CAD         1.3460   -0.3600    1.3130 c3        1 2XJ     -0.122100
      4 OAG         1.9040   -1.2220   -0.8660 oh        1 2XJ     -0.593800
      5 CAN         1.7230    1.1210   -0.6550 c3        1 2XJ      0.131400
      6 OAT         1.1110    1.4430   -1.9110 os        1 2XJ     -0.304900
      7 CBB         1.7260    2.4510   -2.6240 ca        1 2XJ      0.102100
      8 CAK         2.6310    3.3640   -2.0840 ca        1 2XJ     -0.135000
      9 CBA         1.3460    2.5510   -3.9900 ca        1 2XJ      0.116100
     10 OAS         0.4360    1.6110   -4.4230 os        1 2XJ     -0.299900
     11 CAB         0.0760    1.6780   -5.7980 c3        1 2XJ      0.109700
     12 CAI         1.8870    3.5640   -4.7840 ca        1 2XJ     -0.183000
     13 CAH         2.7970    4.4670   -4.2370 ca        1 2XJ     -0.118000
     14 CAY         3.1710    4.3780   -2.8920 ca        1 2XJ     -0.133500
     15 CBE         4.1130    5.3400   -2.3420 cc        1 2XJ      0.460900
     16 NAR         4.7630    5.2110   -1.1810 nd        1 2XJ     -0.619000
     17 SAV         4.4720    6.8010   -3.1920 ss        1 2XJ     -0.092300
     18 CBD         5.5340    7.2830   -1.9850 cc        1 2XJ     -0.166700
     19 CAM         6.2820    8.5500   -2.0190 c3        1 2XJ     -0.013100
     20 CAL         7.6770    8.3820   -2.5960 c3        1 2XJ     -0.077400
     21 CAA         8.4220    9.6910   -2.6010 c3        1 2XJ     -0.095100
     22 CBC         5.5760    6.3220   -0.9690 cd        1 2XJ      0.336600
     23 CAO         6.4190    6.4270    0.2420 c3        1 2XJ     -0.046600
     24 SAU         5.4070    7.1860    1.4920 ss        1 2XJ     -0.241400
     25 C4          6.4280    7.4260    2.8320 ca        1 2XJ      0.577600
     26 C5          5.8210    8.0340    3.9440 ca        1 2XJ     -0.472600
     27 N3          7.7240    7.0470    2.8130 nb        1 2XJ     -0.806000
     28 C2          8.4520    7.3010    3.9690 ca        1 2XJ      0.909900
     29 NAF         9.8240    7.0170    3.9390 nh        1 2XJ     -0.926500
     30 N1          7.9480    7.8540    5.1320 nb        1 2XJ     -0.824000
     31 C6          6.6340    8.2460    5.0980 ca        1 2XJ      0.715200
     32 NAE         6.1020    8.9110    6.1990 nh        1 2XJ     -0.941500
     33 H1         -0.8990    0.5230   -0.1150 hc        1 2XJ      0.047867
     34 H2         -0.7590   -1.2900   -0.1210 hc        1 2XJ      0.047867
     35 H3         -0.4680   -0.3440   -1.6490 hc        1 2XJ      0.047867
     36 H4          2.4270   -0.2390    1.5620 hc        1 2XJ      0.047867
     37 H5          0.7550    0.4140    1.8560 hc        1 2XJ      0.047867
     38 H6          1.0150   -1.3700    1.6510 hc        1 2XJ      0.047867
     39 H7          1.4410   -2.0590   -0.7490 ho        1 2XJ      0.401000
     40 H8          2.8340    1.0290   -0.7730 h1        1 2XJ      0.055700
     41 H9          1.4680    1.9230    0.0860 h1        1 2XJ      0.055700
     42 H10         2.9250    3.2960   -1.0250 ha        1 2XJ      0.164000
     43 H11        -0.6390    0.8250   -5.9190 h1        1 2XJ      0.045033
     44 H12         0.9720    1.5370   -6.4500 h1        1 2XJ      0.045033
     45 H13        -0.4270    2.6490   -6.0280 h1        1 2XJ      0.045033
     46 H14         1.6070    3.6550   -5.8430 ha        1 2XJ      0.142000
     47 H15         3.2230    5.2560   -4.8780 ha        1 2XJ      0.135000
     48 H16         5.7200    9.3080   -2.6320 hc        1 2XJ      0.060700
     49 H17         6.3590    8.9650   -0.9760 hc        1 2XJ      0.060700
     50 H18         8.2430    7.6260   -1.9880 hc        1 2XJ      0.045200
     51 H19         7.6070    7.9810   -3.6410 hc        1 2XJ      0.045200
     52 H20         8.5250   10.0920   -1.5630 hc        1 2XJ      0.036367
     53 H21         9.4440    9.5510   -3.0280 hc        1 2XJ      0.036367
     54 H22         7.8830   10.4510   -3.2170 hc        1 2XJ      0.036367
     55 H23         7.3210    7.0540    0.0300 h1        1 2XJ      0.094200
     56 H24         6.7740    5.4230    0.5880 h1        1 2XJ      0.094200
     57 H25         4.7690    8.3380    3.9140 ha        1 2XJ      0.158000
     58 H26        10.2830    6.9570    4.8190 hn        1 2XJ      0.423300
     59 H27        10.1260    6.3740    3.2450 hn        1 2XJ      0.423300
     60 H28         6.6180    8.8890    7.0480 hn        1 2XJ      0.418300
     61 H29         5.1150    8.8690    6.2860 hn        1 2XJ      0.418300
@<TRIPOS>BOND
     1    1    2 1   
     2    1   33 1   
     3    1   34 1   
     4    1   35 1   
     5    2    3 1   
     6    2    4 1   
     7    2    5 1   
     8    3   36 1   
     9    3   37 1   
    10    3   38 1   
    11    4   39 1   
    12    5    6 1   
    13    5   40 1   
    14    5   41 1   
    15    6    7 1   
    16    7    8 ar  
    17    7    9 ar  
    18    8   14 ar  
    19    8   42 1   
    20    9   10 1   
    21    9   12 ar  
    22   10   11 1   
    23   11   43 1   
    24   11   44 1   
    25   11   45 1   
    26   12   13 ar  
    27   12   46 1   
    28   13   14 ar  
    29   13   47 1   
    30   14   15 1   
    31   15   16 2   
    32   15   17 1   
    33   16   22 1   
    34   17   18 1   
    35   18   19 1   
    36   18   22 2   
    37   19   20 1   
    38   19   48 1   
    39   19   49 1   
    40   20   21 1   
    41   20   50 1   
    42   20   51 1   
    43   21   52 1   
    44   21   53 1   
    45   21   54 1   
    46   22   23 1   
    47   23   24 1   
    48   23   55 1   
    49   23   56 1   
    50   24   25 1   
    51   25   26 ar  
    52   25   27 ar  
    53   26   31 ar  
    54   26   57 1   
    55   27   28 ar  
    56   28   29 1   
    57   28   30 ar  
    58   29   58 1   
    59   29   59 1   
    60   30   31 ar  
    61   31   32 1   
    62   32   60 1   
    63   32   61 1   
@<TRIPOS>SUBSTRUCTURE
     1 2XJ         1 TEMP              0 ****  ****    0 ROOT
