@<TRIPOS>MOLECULE
2XJ
   61    63     1     0     0
SMALL
bcc


@<TRIPOS>ATOM
      1 CAC        -0.3680   -0.3140   -0.5330 c3        1 2XJ     -0.122100
      2 CBF         1.1070   -0.2010   -0.1800 c3        1 2XJ      0.150800
      3 CAD         1.3080   -0.3250    1.3270 c3        1 2XJ     -0.122100
      4 OAG         1.8710   -1.2080   -0.8420 oh        1 2XJ     -0.593800
      5 CAN         1.7040    1.1380   -0.6510 c3        1 2XJ      0.131400
      6 OAT         1.1040    1.4500   -1.9150 os        1 2XJ     -0.303900
      7 CBB         1.7260    2.4540   -2.6290 ca        1 2XJ      0.102100
      8 CAK         2.6300    3.3670   -2.0880 ca        1 2XJ     -0.135000
      9 CBA         1.3540    2.5470   -3.9980 ca        1 2XJ      0.116100
     10 OAS         0.4440    1.6080   -4.4310 os        1 2XJ     -0.299900
     11 CAB         0.0970    1.6650   -5.8110 c3        1 2XJ      0.109700
     12 CAI         1.9030    3.5550   -4.7940 ca        1 2XJ     -0.183000
     13 CAH         2.8120    4.4580   -4.2460 ca        1 2XJ     -0.118000
     14 CAY         3.1790    4.3740   -2.8990 ca        1 2XJ     -0.134500
     15 CBE         4.1190    5.3370   -2.3470 cc        1 2XJ      0.461900
     16 NAR         4.7720    5.2050   -1.1880 nd        1 2XJ     -0.618000
     17 SAV         4.4740    6.8010   -3.1930 ss        1 2XJ     -0.093300
     18 CBD         5.5370    7.2810   -1.9860 cc        1 2XJ     -0.167700
     19 CAM         6.2820    8.5500   -2.0180 c3        1 2XJ     -0.012100
     20 CAL         7.6790    8.3840   -2.5940 c3        1 2XJ     -0.077400
     21 CAA         8.4210    9.6960   -2.5970 c3        1 2XJ     -0.095100
     22 CBC         5.5840    6.3160   -0.9740 cd        1 2XJ      0.337600
     23 CAO         6.4280    6.4180    0.2360 c3        1 2XJ     -0.046600
     24 SAU         5.4080    7.1400    1.5010 ss        1 2XJ     -0.240400
     25 C4          6.4290    7.3790    2.8410 ca        1 2XJ      0.577600
     26 C5          5.8160    7.9620    3.9630 ca        1 2XJ     -0.471600
     27 N3          7.7320    7.0250    2.8110 nb        1 2XJ     -0.805000
     28 C2          8.4640    7.2880    3.9630 ca        1 2XJ      0.906900
     29 NAF         9.8440    7.0400    3.9190 nv        1 2XJ     -0.924500
     30 N1          7.9600    7.8350    5.1290 nb        1 2XJ     -0.821000
     31 C6          6.6280    8.1610    5.1200 ca        1 2XJ      0.713200
     32 NAE         6.0450    8.6360    6.2930 nv        1 2XJ     -0.940500
     33 H1         -0.4900   -0.3220   -1.6430 hc        1 2XJ      0.047867
     34 H2         -0.7950   -1.2540   -0.1100 hc        1 2XJ      0.047867
     35 H3         -0.9240    0.5590   -0.1180 hc        1 2XJ      0.047867
     36 H4          0.9680   -1.3300    1.6720 hc        1 2XJ      0.047867
     37 H5          2.3890   -0.2090    1.5810 hc        1 2XJ      0.047867
     38 H6          0.7200    0.4580    1.8610 hc        1 2XJ      0.047867
     39 H7          1.4060   -2.0420   -0.7150 ho        1 2XJ      0.401000
     40 H8          1.4470    1.9480    0.0800 h1        1 2XJ      0.055700
     41 H9          2.8160    1.0390   -0.7580 h1        1 2XJ      0.055700
     42 H10         2.9180    3.3030   -1.0280 ha        1 2XJ      0.164000
     43 H11         0.9990    1.5170   -6.4530 h1        1 2XJ      0.045033
     44 H12        -0.6180    0.8120   -5.9310 h1        1 2XJ      0.045033
     45 H13        -0.4020    2.6350   -6.0520 h1        1 2XJ      0.045033
     46 H14         1.6300    3.6410   -5.8550 ha        1 2XJ      0.142000
     47 H15         3.2440    5.2420   -4.8890 ha        1 2XJ      0.135000
     48 H16         5.7200    9.3070   -2.6300 hc        1 2XJ      0.059700
     49 H17         6.3580    8.9640   -0.9740 hc        1 2XJ      0.059700
     50 H18         7.6100    7.9860   -3.6390 hc        1 2XJ      0.045200
     51 H19         8.2450    7.6290   -1.9870 hc        1 2XJ      0.045200
     52 H20         9.4440    9.5580   -3.0230 hc        1 2XJ      0.036033
     53 H21         7.8810   10.4550   -3.2130 hc        1 2XJ      0.036033
     54 H22         8.5230   10.0950   -1.5580 hc        1 2XJ      0.036033
     55 H23         7.3190    7.0630    0.0310 h1        1 2XJ      0.094200
     56 H24         6.8010    5.4150    0.5660 h1        1 2XJ      0.094200
     57 H25         4.7540    8.2290    3.9490 ha        1 2XJ      0.158000
     58 H26        10.1500    6.4050    3.2180 hn        1 2XJ      0.421800
     59 H27        10.3040    6.9680    4.7970 hn        1 2XJ      0.421800
     60 H28         5.2120    9.1610    6.1700 hn        1 2XJ      0.417800
     61 H29         6.6510    8.9450    7.0170 hn        1 2XJ      0.417800
@<TRIPOS>BOND
     1    1    2 1   
     2    1   33 1   
     3    1   34 1   
     4    1   35 1   
     5    2    3 1   
     6    2    4 1   
     7    2    5 1   
     8    3   36 1   
     9    3   37 1   
    10    3   38 1   
    11    4   39 1   
    12    5    6 1   
    13    5   40 1   
    14    5   41 1   
    15    6    7 1   
    16    7    8 ar  
    17    7    9 ar  
    18    8   14 ar  
    19    8   42 1   
    20    9   10 1   
    21    9   12 ar  
    22   10   11 1   
    23   11   43 1   
    24   11   44 1   
    25   11   45 1   
    26   12   13 ar  
    27   12   46 1   
    28   13   14 ar  
    29   13   47 1   
    30   14   15 1   
    31   15   16 2   
    32   15   17 1   
    33   16   22 1   
    34   17   18 1   
    35   18   19 1   
    36   18   22 2   
    37   19   20 1   
    38   19   48 1   
    39   19   49 1   
    40   20   21 1   
    41   20   50 1   
    42   20   51 1   
    43   21   52 1   
    44   21   53 1   
    45   21   54 1   
    46   22   23 1   
    47   23   24 1   
    48   23   55 1   
    49   23   56 1   
    50   24   25 1   
    51   25   26 ar  
    52   25   27 ar  
    53   26   31 ar  
    54   26   57 1   
    55   27   28 ar  
    56   28   29 1   
    57   28   30 ar  
    58   29   58 1   
    59   29   59 1   
    60   30   31 ar  
    61   31   32 1   
    62   32   60 1   
    63   32   61 1   
@<TRIPOS>SUBSTRUCTURE
     1 2XJ         1 TEMP              0 ****  ****    0 ROOT
