@<TRIPOS>MOLECULE
2XK
   38    39     1     0     0
SMALL
bcc


@<TRIPOS>ATOM
      1 C10        -0.1360   -0.0890    0.4280 ca        1 2XK     -0.103500
      2 C15         1.5110   -0.0040    2.6840 ca        1 2XK     -0.090000
      3 C17         6.4900   -1.2150    0.2360 ca        1 2XK     -0.156200
      4 C01         9.2860    3.0210   -0.0940 c3        1 2XK      0.122700
      5 C03         7.5720    1.3410   -0.1520 ca        1 2XK      0.156100
      6 C04         6.1840    1.1370   -0.1790 ca        1 2XK     -0.153000
      7 C05         5.6230   -0.1300    0.0150 ca        1 2XK     -0.000300
      8 C06         4.1400   -0.2520   -0.0220 c3        1 2XK     -0.146100
      9 C07         3.5210   -0.5230    1.3270 c         1 2XK      0.587700
     10 C08         2.0630   -0.2760    1.4250 ca        1 2XK     -0.149600
     11 C09         1.2310   -0.3230    0.3010 ca        1 2XK     -0.090000
     12 C11        -0.6820    0.1970    1.6880 ca        1 2XK      0.009000
     13 C12        -2.0760    0.4440    1.8180 cg        1 2XK      0.226800
     14 N13        -3.2170    0.6460    1.9240 n1        1 2XK     -0.349800
     15 C14         0.1460    0.2370    2.8180 ca        1 2XK     -0.103500
     16 O16         4.1760   -0.9160    2.2960 o         1 2XK     -0.515100
     17 C18         7.8840   -1.0280    0.2870 ca        1 2XK     -0.118000
     18 C19         8.4290    0.2390    0.0890 ca        1 2XK      0.059100
     19 O20         9.7880    0.4920    0.1020 os        1 2XK     -0.332900
     20 O23         6.7150   -3.4010    0.9630 o         1 2XK     -0.213500
     21 O24         4.8960   -2.9090    0.0380 o         1 2XK     -0.213500
     22 H1         -0.7880   -0.1320   -0.4580 ha        1 2XK      0.151000
     23 H2          2.1690    0.0090    3.5690 ha        1 2XK      0.153000
     24 H3         10.3520   -0.9600    1.5120 h1        1 2XK      0.052367
     25 H4         10.5790   -1.4150   -0.2550 h1        1 2XK      0.052367
     26 H5         11.6490   -0.1280    0.5060 h1        1 2XK      0.052367
     27 H6          9.5440    2.7370    0.9540 h1        1 2XK      0.054700
     28 H7          9.2620    4.1350   -0.2150 h1        1 2XK      0.054700
     29 H8         10.0000    2.5570   -0.8160 h1        1 2XK      0.054700
     30 H9          5.5340    2.0090   -0.3590 ha        1 2XK      0.163000
     31 H10         3.8430   -1.0920   -0.7130 hc        1 2XK      0.095700
     32 H11         3.6920    0.6950   -0.4330 hc        1 2XK      0.095700
     33 H12         1.6470   -0.5570   -0.6910 ha        1 2XK      0.153000
     34 H13        -0.2820    0.4540    3.8090 ha        1 2XK      0.151000
     35 H14         8.5380   -1.8950    0.4860 ha        1 2XK      0.176000
     36 N22         5.9880   -2.6010    0.4350 no        1 2XK      0.325200
     37 C21        10.6290   -0.5900    0.4960 c3        1 2XK      0.109700
     38 O02         7.9500    2.6350   -0.4130 os        1 2XK     -0.320900
@<TRIPOS>BOND
     1    1   11 ar  
     2    1   12 ar  
     3    1   22 1   
     4    2   10 ar  
     5    2   15 ar  
     6    2   23 1   
     7    3    7 ar  
     8    3   17 ar  
     9    3   36 1   
    10    4   27 1   
    11    4   28 1   
    12    4   29 1   
    13    4   38 1   
    14    5    6 ar  
    15    5   18 ar  
    16    5   38 1   
    17    6    7 ar  
    18    6   30 1   
    19    7    8 1   
    20    8    9 1   
    21    8   31 1   
    22    8   32 1   
    23    9   10 1   
    24    9   16 2   
    25   10   11 ar  
    26   11   33 1   
    27   12   13 1   
    28   12   15 ar  
    29   13   14 3   
    30   15   34 1   
    31   17   18 ar  
    32   17   35 1   
    33   18   19 1   
    34   19   37 1   
    35   20   36 1   
    36   21   36 1   
    37   24   37 1   
    38   25   37 1   
    39   26   37 1   
@<TRIPOS>SUBSTRUCTURE
     1 2XK         1 TEMP              0 ****  ****    0 ROOT
