@<TRIPOS>MOLECULE
2XK
   38    39     1     0     0
SMALL
bcc


@<TRIPOS>ATOM
      1 C10         0.0270    0.2190   -0.0680 ca        1 2XK     -0.103500
      2 C15         1.3300   -0.0960    2.3850 ca        1 2XK     -0.090500
      3 C17         6.5270   -1.4020    0.4970 ca        1 2XK     -0.152200
      4 C01         7.7820    3.4630    0.5230 c3        1 2XK      0.105700
      5 C03         7.7960    1.0860    0.6190 ca        1 2XK      0.149100
      6 C04         6.4280    1.0050    0.3740 ca        1 2XK     -0.200000
      7 C05         5.7710   -0.2350    0.3140 ca        1 2XK      0.003700
      8 C06         4.3040   -0.2330    0.0570 c3        1 2XK     -0.147100
      9 C07         3.4780   -0.6170    1.2590 c         1 2XK      0.586700
     10 C08         2.0400   -0.2640    1.1880 ca        1 2XK     -0.149600
     11 C09         1.3800   -0.1110   -0.0360 ca        1 2XK     -0.090500
     12 C11        -0.6760    0.4020    1.1320 ca        1 2XK      0.009000
     13 C12        -2.0550    0.7470    1.1010 cg        1 2XK      0.226800
     14 N13        -3.1830    1.0310    1.0750 n1        1 2XK     -0.349800
     15 C14        -0.0210    0.2400    2.3610 ca        1 2XK     -0.103500
     16 O16         3.9570   -1.1820    2.2470 o         1 2XK     -0.512100
     17 C18         7.9120   -1.3390    0.7610 ca        1 2XK     -0.133000
     18 C19         8.5490   -0.1070    0.8190 ca        1 2XK      0.102100
     19 O20         9.8940    0.0760    1.0540 os        1 2XK     -0.298900
     20 O23         4.8790   -2.9260   -0.1490 o         1 2XK     -0.213500
     21 O24         6.5090   -3.6750    0.9410 o         1 2XK     -0.213500
     22 H1         -0.4900    0.3340   -1.0320 ha        1 2XK      0.151000
     23 H2          1.8510   -0.2430    3.3460 ha        1 2XK      0.153000
     24 H3         10.2370   -1.6110    2.2580 h1        1 2XK      0.052033
     25 H4         10.6480   -1.7940    0.4750 h1        1 2XK      0.052033
     26 H5         11.6710   -0.7030    1.5460 h1        1 2XK      0.052033
     27 H6          8.5680    4.2530    0.6310 h1        1 2XK      0.051367
     28 H7          7.0060    3.5640    1.3200 h1        1 2XK      0.051367
     29 H8          7.3160    3.5050   -0.4910 h1        1 2XK      0.051367
     30 H9          5.8400    1.9240    0.2300 ha        1 2XK      0.151000
     31 H10         4.0600   -0.9550   -0.7740 hc        1 2XK      0.094200
     32 H11         3.9790    0.7890   -0.2830 hc        1 2XK      0.094200
     33 H12         1.9190   -0.2630   -0.9840 ha        1 2XK      0.153000
     34 H13        -0.5740    0.3740    3.3040 ha        1 2XK      0.151000
     35 H14         8.4760   -2.2730    0.9280 ha        1 2XK      0.178000
     36 N22         5.9180   -2.7590    0.4330 no        1 2XK      0.325200
     37 C21        10.6430   -1.1000    1.3510 c3        1 2XK      0.105700
     38 O02         8.5180    2.2530    0.6870 os        1 2XK     -0.292900
@<TRIPOS>BOND
     1    1   11 ar  
     2    1   12 ar  
     3    1   22 1   
     4    2   10 ar  
     5    2   15 ar  
     6    2   23 1   
     7    3    7 ar  
     8    3   17 ar  
     9    3   36 1   
    10    4   27 1   
    11    4   28 1   
    12    4   29 1   
    13    4   38 1   
    14    5    6 ar  
    15    5   18 ar  
    16    5   38 1   
    17    6    7 ar  
    18    6   30 1   
    19    7    8 1   
    20    8    9 1   
    21    8   31 1   
    22    8   32 1   
    23    9   10 1   
    24    9   16 2   
    25   10   11 ar  
    26   11   33 1   
    27   12   13 1   
    28   12   15 ar  
    29   13   14 3   
    30   15   34 1   
    31   17   18 ar  
    32   17   35 1   
    33   18   19 1   
    34   19   37 1   
    35   20   36 1   
    36   21   36 1   
    37   24   37 1   
    38   25   37 1   
    39   26   37 1   
@<TRIPOS>SUBSTRUCTURE
     1 2XK         1 TEMP              0 ****  ****    0 ROOT
