@<TRIPOS>MOLECULE
2XK
   38    39     1     0     0
SMALL
bcc


@<TRIPOS>ATOM
      1 C10         0.0250    0.2250   -0.0560 ca        1 2XK     -0.103500
      2 C15         1.3330   -0.0980    2.3930 ca        1 2XK     -0.090500
      3 C17         6.5250   -1.4020    0.4900 ca        1 2XK     -0.152200
      4 C01         7.7840    3.4610    0.5240 c3        1 2XK      0.105700
      5 C03         7.7970    1.0850    0.6140 ca        1 2XK      0.149100
      6 C04         6.4280    1.0050    0.3720 ca        1 2XK     -0.200000
      7 C05         5.7690   -0.2340    0.3110 ca        1 2XK      0.003700
      8 C06         4.3020   -0.2300    0.0580 c3        1 2XK     -0.147100
      9 C07         3.4790   -0.6170    1.2610 c         1 2XK      0.586700
     10 C08         2.0410   -0.2630    1.1940 ca        1 2XK     -0.149600
     11 C09         1.3770   -0.1060   -0.0280 ca        1 2XK     -0.090500
     12 C11        -0.6750    0.4050    1.1460 ca        1 2XK      0.009000
     13 C12        -2.0540    0.7510    1.1190 cg        1 2XK      0.226800
     14 N13        -3.1820    1.0350    1.0960 n1        1 2XK     -0.349800
     15 C14        -0.0180    0.2400    2.3730 ca        1 2XK     -0.103500
     16 O16         3.9590   -1.1850    2.2460 o         1 2XK     -0.512100
     17 C18         7.9110   -1.3410    0.7510 ca        1 2XK     -0.133000
     18 C19         8.5490   -0.1100    0.8110 ca        1 2XK      0.102100
     19 O20         9.8950    0.0720    1.0420 os        1 2XK     -0.298900
     20 O23         4.8750   -2.9230   -0.1560 o         1 2XK     -0.213500
     21 O24         6.5060   -3.6760    0.9280 o         1 2XK     -0.213500
     22 H1         -0.4950    0.3420   -1.0190 ha        1 2XK      0.151000
     23 H2          1.8560   -0.2470    3.3520 ha        1 2XK      0.153000
     24 H3         10.2390   -1.6180    2.2420 h1        1 2XK      0.052033
     25 H4         10.6460   -1.7980    0.4580 h1        1 2XK      0.052033
     26 H5         11.6720   -0.7100    1.5300 h1        1 2XK      0.052033
     27 H6          8.5700    4.2510    0.6320 h1        1 2XK      0.051367
     28 H7          7.0100    3.5620    1.3230 h1        1 2XK      0.051367
     29 H8          7.3150    3.5070   -0.4890 h1        1 2XK      0.051367
     30 H9          5.8400    1.9250    0.2320 ha        1 2XK      0.151000
     31 H10         4.0560   -0.9510   -0.7740 hc        1 2XK      0.094200
     32 H11         3.9770    0.7920   -0.2790 hc        1 2XK      0.094200
     33 H12         1.9150   -0.2560   -0.9770 ha        1 2XK      0.153000
     34 H13        -0.5680    0.3710    3.3170 ha        1 2XK      0.151000
     35 H14         8.4750   -2.2760    0.9140 ha        1 2XK      0.178000
     36 N22         5.9150   -2.7580    0.4240 no        1 2XK      0.325200
     37 C21        10.6430   -1.1060    1.3350 c3        1 2XK      0.105700
     38 O02         8.5190    2.2510    0.6840 os        1 2XK     -0.292900
@<TRIPOS>BOND
     1    1   11 ar  
     2    1   12 ar  
     3    1   22 1   
     4    2   10 ar  
     5    2   15 ar  
     6    2   23 1   
     7    3    7 ar  
     8    3   17 ar  
     9    3   36 1   
    10    4   27 1   
    11    4   28 1   
    12    4   29 1   
    13    4   38 1   
    14    5    6 ar  
    15    5   18 ar  
    16    5   38 1   
    17    6    7 ar  
    18    6   30 1   
    19    7    8 1   
    20    8    9 1   
    21    8   31 1   
    22    8   32 1   
    23    9   10 1   
    24    9   16 2   
    25   10   11 ar  
    26   11   33 1   
    27   12   13 1   
    28   12   15 ar  
    29   13   14 3   
    30   15   34 1   
    31   17   18 ar  
    32   17   35 1   
    33   18   19 1   
    34   19   37 1   
    35   20   36 1   
    36   21   36 1   
    37   24   37 1   
    38   25   37 1   
    39   26   37 1   
@<TRIPOS>SUBSTRUCTURE
     1 2XK         1 TEMP              0 ****  ****    0 ROOT
