@<TRIPOS>MOLECULE
2XL
   48    50     1     0     0
SMALL
bcc


@<TRIPOS>ATOM
      1 CAB        -0.1740    0.1730    0.0710 c3        1 2XL      0.109700
      2 OAP         1.2290   -0.0690    0.0540 os        1 2XL     -0.299900
      3 CAX         1.8650   -0.0210    1.2760 ca        1 2XL      0.114100
      4 CAU         3.2620   -0.2650    1.2480 ca        1 2XL      0.097100
      5 CAI         4.0030   -0.2400    2.4310 ca        1 2XL     -0.145000
      6 OAE         3.8250   -0.5210    0.0200 oh        1 2XL     -0.476100
      7 CAG         1.2390    0.2460    2.4960 ca        1 2XL     -0.178000
      8 CAF         1.9860    0.2700    3.6720 ca        1 2XL     -0.120000
      9 CAV         3.3640    0.0280    3.6510 ca        1 2XL     -0.127500
     10 CBA         4.1210    0.0490    4.8930 cc        1 2XL      0.456900
     11 NAO         5.4470    0.1850    4.9860 nd        1 2XL     -0.616000
     12 SAR         3.3200   -0.1180    6.4130 ss        1 2XL     -0.088300
     13 CAZ         4.7790   -0.0000    7.2340 cc        1 2XL     -0.166700
     14 CAK         4.8970   -0.0720    8.6990 c3        1 2XL     -0.014100
     15 CAJ         4.8970    1.3030    9.3460 c3        1 2XL     -0.077400
     16 CAA         5.0370    1.1960   10.8430 c3        1 2XL     -0.095100
     17 CAY         5.8320    0.1550    6.3240 cd        1 2XL      0.336600
     18 CAL         7.2530    0.2990    6.7110 c3        1 2XL     -0.054600
     19 SAQ         7.9130   -1.3510    6.7370 ss        1 2XL     -0.200400
     20 C2          9.5440   -1.1670    7.2860 ca        1 2XL      0.791300
     21 N3         10.0090    0.0880    7.5370 nb        1 2XL     -0.797000
     22 N1         10.2250   -2.3410    7.4150 nb        1 2XL     -0.797000
     23 C6         11.5340   -2.2400    7.8250 ca        1 2XL      0.705200
     24 NAC        12.3170   -3.3900    7.8790 nh        1 2XL     -0.938000
     25 C5         12.1190   -0.9780    8.1340 ca        1 2XL     -0.500600
     26 C4         11.3080    0.1800    7.9830 ca        1 2XL      0.705200
     27 NAD        11.8120    1.4270    8.3530 nh        1 2XL     -0.938000
     28 H1         -0.7010   -0.5960    0.6870 h1        1 2XL      0.045367
     29 H2         -0.4630    0.0820   -1.0070 h1        1 2XL      0.045367
     30 H3         -0.3940    1.1990    0.4530 h1        1 2XL      0.045367
     31 H4          5.0870   -0.4290    2.4010 ha        1 2XL      0.161000
     32 H5          4.7750   -0.6570    0.1560 ho        1 2XL      0.419000
     33 H6          0.1580    0.4400    2.5390 ha        1 2XL      0.143000
     34 H7          1.4790    0.4870    4.6270 ha        1 2XL      0.136000
     35 H8          5.8500   -0.6090    8.9690 hc        1 2XL      0.061700
     36 H9          4.0500   -0.6780    9.1210 hc        1 2XL      0.061700
     37 H10         3.9450    1.8380    9.0910 hc        1 2XL      0.045200
     38 H11         5.7420    1.9120    8.9290 hc        1 2XL      0.045200
     39 H12         5.0340    2.2130   11.3030 hc        1 2XL      0.036033
     40 H13         4.1920    0.6090   11.2780 hc        1 2XL      0.036033
     41 H14         5.9930    0.6880   11.1150 hc        1 2XL      0.036033
     42 H15         7.8160    0.9390    5.9860 h1        1 2XL      0.094200
     43 H16         7.3280    0.7780    7.7190 h1        1 2XL      0.094200
     44 H17        13.0950   -3.3470    8.4940 hn        1 2XL      0.416050
     45 H18        11.8490   -4.2660    7.8310 hn        1 2XL      0.416050
     46 H19        13.1570   -0.9030    8.4740 ha        1 2XL      0.146000
     47 H20        11.3050    2.2280    8.0550 hn        1 2XL      0.416050
     48 H21        12.8010    1.5080    8.3120 hn        1 2XL      0.416050
@<TRIPOS>BOND
     1    1    2 1   
     2    1   28 1   
     3    1   29 1   
     4    1   30 1   
     5    2    3 1   
     6    3    4 ar  
     7    3    7 ar  
     8    4    5 ar  
     9    4    6 1   
    10    5    9 ar  
    11    5   31 1   
    12    6   32 1   
    13    7    8 ar  
    14    7   33 1   
    15    8    9 ar  
    16    8   34 1   
    17    9   10 1   
    18   10   11 2   
    19   10   12 1   
    20   11   17 1   
    21   12   13 1   
    22   13   14 1   
    23   13   17 2   
    24   14   15 1   
    25   14   35 1   
    26   14   36 1   
    27   15   16 1   
    28   15   37 1   
    29   15   38 1   
    30   16   39 1   
    31   16   40 1   
    32   16   41 1   
    33   17   18 1   
    34   18   19 1   
    35   18   42 1   
    36   18   43 1   
    37   19   20 1   
    38   20   21 ar  
    39   20   22 ar  
    40   21   26 ar  
    41   22   23 ar  
    42   23   24 1   
    43   23   25 ar  
    44   24   44 1   
    45   24   45 1   
    46   25   26 ar  
    47   25   46 1   
    48   26   27 1   
    49   27   47 1   
    50   27   48 1   
@<TRIPOS>SUBSTRUCTURE
     1 2XL         1 TEMP              0 ****  ****    0 ROOT
