@<TRIPOS>MOLECULE
2XL
   48    50     1     0     0
SMALL
bcc


@<TRIPOS>ATOM
      1 CAB        -0.1760    0.1630    0.0730 c3        1 2XL      0.109700
      2 OAP         1.2270   -0.0770    0.0550 os        1 2XL     -0.299900
      3 CAX         1.8630   -0.0270    1.2760 ca        1 2XL      0.114100
      4 CAU         3.2610   -0.2690    1.2490 ca        1 2XL      0.097100
      5 CAI         4.0020   -0.2430    2.4310 ca        1 2XL     -0.145000
      6 OAE         3.8230   -0.5260    0.0200 oh        1 2XL     -0.476100
      7 CAG         1.2380    0.2390    2.4970 ca        1 2XL     -0.178000
      8 CAF         1.9850    0.2660    3.6730 ca        1 2XL     -0.120000
      9 CAV         3.3630    0.0240    3.6510 ca        1 2XL     -0.127500
     10 CBA         4.1200    0.0470    4.8930 cc        1 2XL      0.456900
     11 NAO         5.4470    0.1840    4.9860 nd        1 2XL     -0.616000
     12 SAR         3.3210   -0.1210    6.4140 ss        1 2XL     -0.088300
     13 CAZ         4.7790   -0.0010    7.2340 cc        1 2XL     -0.166700
     14 CAK         4.8980   -0.0720    8.6990 c3        1 2XL     -0.014100
     15 CAJ         4.8960    1.3020    9.3460 c3        1 2XL     -0.077400
     16 CAA         5.0360    1.1960   10.8420 c3        1 2XL     -0.095100
     17 CAY         5.8320    0.1550    6.3240 cd        1 2XL      0.336600
     18 CAL         7.2530    0.3010    6.7100 c3        1 2XL     -0.054600
     19 SAQ         7.9150   -1.3490    6.7370 ss        1 2XL     -0.200400
     20 C2          9.5460   -1.1620    7.2860 ca        1 2XL      0.791300
     21 N3         10.0090    0.0940    7.5350 nb        1 2XL     -0.797000
     22 N1         10.2270   -2.3360    7.4160 nb        1 2XL     -0.797000
     23 C6         11.5370   -2.2330    7.8260 ca        1 2XL      0.705200
     24 NAC        12.3210   -3.3820    7.8800 nv        1 2XL     -0.938000
     25 C5         12.1200   -0.9700    8.1330 ca        1 2XL     -0.500600
     26 C4         11.3080    0.1880    7.9810 ca        1 2XL      0.705200
     27 NAD        11.8120    1.4350    8.3500 nv        1 2XL     -0.938000
     28 H1         -0.7010   -0.6060    0.6890 h1        1 2XL      0.045367
     29 H2         -0.4650    0.0710   -1.0050 h1        1 2XL      0.045367
     30 H3         -0.3970    1.1900    0.4540 h1        1 2XL      0.045367
     31 H4          5.0870   -0.4310    2.4010 ha        1 2XL      0.161000
     32 H5          4.7740   -0.6610    0.1560 ho        1 2XL      0.419000
     33 H6          0.1570    0.4320    2.5400 ha        1 2XL      0.143000
     34 H7          1.4780    0.4820    4.6270 ha        1 2XL      0.136000
     35 H8          5.8510   -0.6080    8.9680 hc        1 2XL      0.061700
     36 H9          4.0520   -0.6790    9.1210 hc        1 2XL      0.061700
     37 H10         3.9430    1.8370    9.0910 hc        1 2XL      0.045200
     38 H11         5.7400    1.9130    8.9280 hc        1 2XL      0.045200
     39 H12         5.0320    2.2130   11.3030 hc        1 2XL      0.036033
     40 H13         4.1920    0.6080   11.2780 hc        1 2XL      0.036033
     41 H14         5.9940    0.6890   11.1150 hc        1 2XL      0.036033
     42 H15         7.8150    0.9410    5.9850 h1        1 2XL      0.094200
     43 H16         7.3280    0.7810    7.7180 h1        1 2XL      0.094200
     44 H17        13.0980   -3.3370    8.4950 hn        1 2XL      0.416050
     45 H18        11.8540   -4.2580    7.8330 hn        1 2XL      0.416050
     46 H19        13.1580   -0.8930    8.4730 ha        1 2XL      0.146000
     47 H20        11.3040    2.2360    8.0510 hn        1 2XL      0.416050
     48 H21        12.8000    1.5170    8.3090 hn        1 2XL      0.416050
@<TRIPOS>BOND
     1    1    2 1   
     2    1   28 1   
     3    1   29 1   
     4    1   30 1   
     5    2    3 1   
     6    3    4 ar  
     7    3    7 ar  
     8    4    5 ar  
     9    4    6 1   
    10    5    9 ar  
    11    5   31 1   
    12    6   32 1   
    13    7    8 ar  
    14    7   33 1   
    15    8    9 ar  
    16    8   34 1   
    17    9   10 1   
    18   10   11 2   
    19   10   12 1   
    20   11   17 1   
    21   12   13 1   
    22   13   14 1   
    23   13   17 2   
    24   14   15 1   
    25   14   35 1   
    26   14   36 1   
    27   15   16 1   
    28   15   37 1   
    29   15   38 1   
    30   16   39 1   
    31   16   40 1   
    32   16   41 1   
    33   17   18 1   
    34   18   19 1   
    35   18   42 1   
    36   18   43 1   
    37   19   20 1   
    38   20   21 ar  
    39   20   22 ar  
    40   21   26 ar  
    41   22   23 ar  
    42   23   24 1   
    43   23   25 ar  
    44   24   44 1   
    45   24   45 1   
    46   25   26 ar  
    47   25   46 1   
    48   26   27 1   
    49   27   47 1   
    50   27   48 1   
@<TRIPOS>SUBSTRUCTURE
     1 2XL         1 TEMP              0 ****  ****    0 ROOT
