@<TRIPOS>MOLECULE
2XL
   48    50     1     0     0
SMALL
bcc


@<TRIPOS>ATOM
      1 CAB        -0.1730    0.1600    0.0690 c3        1 2XL      0.109700
      2 OAP         1.2310   -0.0740    0.0520 os        1 2XL     -0.299900
      3 CAX         1.8660   -0.0250    1.2740 ca        1 2XL      0.113100
      4 CAU         3.2650   -0.2620    1.2470 ca        1 2XL      0.097100
      5 CAI         4.0050   -0.2360    2.4300 ca        1 2XL     -0.145000
      6 OAE         3.8290   -0.5130    0.0180 oh        1 2XL     -0.476100
      7 CAG         1.2390    0.2360    2.4950 ca        1 2XL     -0.178000
      8 CAF         1.9850    0.2620    3.6720 ca        1 2XL     -0.120000
      9 CAV         3.3640    0.0260    3.6500 ca        1 2XL     -0.127500
     10 CBA         4.1200    0.0480    4.8930 cc        1 2XL      0.455900
     11 NAO         5.4470    0.1830    4.9870 nd        1 2XL     -0.616000
     12 SAR         3.3180   -0.1150    6.4130 ss        1 2XL     -0.087300
     13 CAZ         4.7760    0.0030    7.2340 cc        1 2XL     -0.165700
     14 CAK         4.8940   -0.0660    8.7000 c3        1 2XL     -0.015100
     15 CAJ         4.8890    1.3100    9.3450 c3        1 2XL     -0.077400
     16 CAA         5.0280    1.2050   10.8420 c3        1 2XL     -0.095100
     17 CAY         5.8300    0.1550    6.3250 cd        1 2XL      0.335600
     18 CAL         7.2500    0.2990    6.7140 c3        1 2XL     -0.053600
     19 SAQ         7.8990   -1.3550    6.7800 ss        1 2XL     -0.201400
     20 C2          9.5320   -1.1690    7.3230 ca        1 2XL      0.793300
     21 N3         10.0030    0.0880    7.5510 nb        1 2XL     -0.798000
     22 N1         10.2100   -2.3440    7.4590 nb        1 2XL     -0.798000
     23 C6         11.5130   -2.2440    7.8930 ca        1 2XL      0.709200
     24 NAC        12.2340   -3.4080    8.1380 nh        1 2XL     -0.941000
     25 C5         12.1140   -0.9770    8.1480 ca        1 2XL     -0.505600
     26 C4         11.3070    0.1820    7.9830 ca        1 2XL      0.709200
     27 NAD        11.8210    1.4320    8.3180 nh        1 2XL     -0.941000
     28 H1         -0.4620    0.0690   -1.0090 h1        1 2XL      0.045367
     29 H2         -0.3990    1.1840    0.4530 h1        1 2XL      0.045367
     30 H3         -0.6960   -0.6130    0.6830 h1        1 2XL      0.045367
     31 H4          5.0900   -0.4200    2.4000 ha        1 2XL      0.160000
     32 H5          4.7800   -0.6440    0.1540 ho        1 2XL      0.419000
     33 H6          0.1570    0.4240    2.5370 ha        1 2XL      0.143000
     34 H7          1.4760    0.4740    4.6260 ha        1 2XL      0.136000
     35 H8          5.8480   -0.6000    8.9700 hc        1 2XL      0.062200
     36 H9          4.0480   -0.6740    9.1220 hc        1 2XL      0.062200
     37 H10         3.9360    1.8420    9.0890 hc        1 2XL      0.044700
     38 H11         5.7330    1.9200    8.9270 hc        1 2XL      0.044700
     39 H12         4.1850    0.6160   11.2770 hc        1 2XL      0.036367
     40 H13         5.9860    0.6990   11.1150 hc        1 2XL      0.036367
     41 H14         5.0230    2.2230   11.3010 hc        1 2XL      0.036367
     42 H15         7.8200    0.9200    5.9780 h1        1 2XL      0.093700
     43 H16         7.3250    0.7990    7.7120 h1        1 2XL      0.093700
     44 H17        13.2210   -3.3140    8.1160 hn        1 2XL      0.417550
     45 H18        11.8660   -4.2610    7.7860 hn        1 2XL      0.417550
     46 H19        13.1510   -0.9020    8.4900 ha        1 2XL      0.146000
     47 H20        11.3190    2.2330    8.0110 hn        1 2XL      0.417550
     48 H21        12.8100    1.5060    8.2950 hn        1 2XL      0.417550
@<TRIPOS>BOND
     1    1    2 1   
     2    1   28 1   
     3    1   29 1   
     4    1   30 1   
     5    2    3 1   
     6    3    4 ar  
     7    3    7 ar  
     8    4    5 ar  
     9    4    6 1   
    10    5    9 ar  
    11    5   31 1   
    12    6   32 1   
    13    7    8 ar  
    14    7   33 1   
    15    8    9 ar  
    16    8   34 1   
    17    9   10 1   
    18   10   11 2   
    19   10   12 1   
    20   11   17 1   
    21   12   13 1   
    22   13   14 1   
    23   13   17 2   
    24   14   15 1   
    25   14   35 1   
    26   14   36 1   
    27   15   16 1   
    28   15   37 1   
    29   15   38 1   
    30   16   39 1   
    31   16   40 1   
    32   16   41 1   
    33   17   18 1   
    34   18   19 1   
    35   18   42 1   
    36   18   43 1   
    37   19   20 1   
    38   20   21 ar  
    39   20   22 ar  
    40   21   26 ar  
    41   22   23 ar  
    42   23   24 1   
    43   23   25 ar  
    44   24   44 1   
    45   24   45 1   
    46   25   26 ar  
    47   25   46 1   
    48   26   27 1   
    49   27   47 1   
    50   27   48 1   
@<TRIPOS>SUBSTRUCTURE
     1 2XL         1 TEMP              0 ****  ****    0 ROOT
