@<TRIPOS>MOLECULE
2XM
   59    61     1     0     0
SMALL
bcc


@<TRIPOS>ATOM
      1 OAE        -0.0190   -0.8480   -0.1590 oh        1 2XM     -0.598800
      2 CAL         1.3840   -0.7120   -0.2140 c3        1 2XM      0.130400
      3 CAN         1.9730   -0.3840    1.1550 c3        1 2XM      0.080400
      4 OAU         1.7710   -1.5670    1.9420 os        1 2XM     -0.326900
      5 CBC         1.9980   -1.4270    3.2970 ca        1 2XM      0.097100
      6 CAI         2.7320   -0.3890    3.8690 ca        1 2XM     -0.129000
      7 CBB         1.4590   -2.4540    4.1160 ca        1 2XM      0.116100
      8 OAT         0.7260   -3.4160    3.4550 os        1 2XM     -0.321900
      9 CAM         0.3810   -4.5760    4.2250 c3        1 2XM      0.081400
     10 CAK        -0.2280   -5.5530    3.2220 c3        1 2XM      0.131400
     11 OAD         0.7450   -6.0550    2.3320 oh        1 2XM     -0.597800
     12 CAG         1.6750   -2.4210    5.4950 ca        1 2XM     -0.177000
     13 CAF         2.4090   -1.3790    6.0600 ca        1 2XM     -0.117000
     14 CAZ         2.9390   -0.3630    5.2580 ca        1 2XM     -0.128500
     15 CBF         3.7100    0.7100    5.8680 cc        1 2XM      0.452900
     16 NAS         3.9480    1.9010    5.3100 nd        1 2XM     -0.614000
     17 SAW         4.4150    0.5080    7.4300 ss        1 2XM     -0.085300
     18 CBE         5.0580    2.0570    7.3780 cc        1 2XM     -0.165700
     19 CAO         5.8690    2.6400    8.4590 c3        1 2XM     -0.014100
     20 CAJ         5.0350    3.4600    9.4280 c3        1 2XM     -0.077400
     21 CAA         5.8960    4.0550   10.5120 c3        1 2XM     -0.095100
     22 CBD         4.7220    2.6770    6.1680 cd        1 2XM      0.336600
     23 CAP         5.1210    4.0540    5.7990 c3        1 2XM     -0.054600
     24 SAV         6.6900    3.8930    4.9780 ss        1 2XM     -0.202400
     25 C2          7.1540    5.5150    4.5870 ca        1 2XM      0.792300
     26 N3          8.3360    5.6090    3.9160 nb        1 2XM     -0.797500
     27 N1          6.3350    6.5350    4.9650 nb        1 2XM     -0.797500
     28 C6          6.7370    7.8030    4.6090 ca        1 2XM      0.706200
     29 NAB         5.8950    8.8810    4.8730 nv        1 2XM     -0.939000
     30 C5          7.9630    8.0220    3.9220 ca        1 2XM     -0.501600
     31 C4          8.7520    6.8810    3.5980 ca        1 2XM      0.706200
     32 NAC         9.9990    7.0570    3.0030 nv        1 2XM     -0.939000
     33 H1         -0.2110   -1.5430    0.4850 ho        1 2XM      0.415000
     34 H2          1.8500   -1.6500   -0.6180 h1        1 2XM      0.057200
     35 H3          1.5690    0.1440   -0.9160 h1        1 2XM      0.057200
     36 H4          1.4430    0.4850    1.6230 h1        1 2XM      0.056200
     37 H5          3.0710   -0.1750    1.0750 h1        1 2XM      0.056200
     38 H6          3.1510    0.4100    3.2380 ha        1 2XM      0.166000
     39 H7         -0.3670   -4.2950    5.0100 h1        1 2XM      0.051700
     40 H8          1.3000   -5.0090    4.6970 h1        1 2XM      0.051700
     41 H9         -0.6200   -6.4520    3.7670 h1        1 2XM      0.057700
     42 H10        -1.0570   -5.0530    2.6540 h1        1 2XM      0.057700
     43 H11         1.1260   -5.2960    1.8710 ho        1 2XM      0.416000
     44 H12         1.2650   -3.2070    6.1450 ha        1 2XM      0.144000
     45 H13         2.5650   -1.3600    7.1500 ha        1 2XM      0.138000
     46 H14         6.6680    3.2940    8.0110 hc        1 2XM      0.062200
     47 H15         6.3940    1.8230    9.0250 hc        1 2XM      0.062200
     48 H16         4.5100    4.2780    8.8680 hc        1 2XM      0.044700
     49 H17         4.2430    2.8110    9.8860 hc        1 2XM      0.044700
     50 H18         6.4100    3.2520   11.0950 hc        1 2XM      0.035700
     51 H19         6.6760    4.7240   10.0750 hc        1 2XM      0.035700
     52 H20         5.2690    4.6550   11.2160 hc        1 2XM      0.035700
     53 H21         4.3680    4.5370    5.1270 h1        1 2XM      0.094200
     54 H22         5.2130    4.6840    6.7180 h1        1 2XM      0.094200
     55 H23         6.3420    9.7650    4.9300 hn        1 2XM      0.416550
     56 H24         5.1450    8.7330    5.5080 hn        1 2XM      0.416550
     57 H25         8.2890    9.0310    3.6520 ha        1 2XM      0.146000
     58 H26        10.4440    6.2500    2.6280 hn        1 2XM      0.416550
     59 H27        10.1030    7.8910    2.4750 hn        1 2XM      0.416550
@<TRIPOS>BOND
     1    1    2 1   
     2    1   33 1   
     3    2    3 1   
     4    2   34 1   
     5    2   35 1   
     6    3    4 1   
     7    3   36 1   
     8    3   37 1   
     9    4    5 1   
    10    5    6 ar  
    11    5    7 ar  
    12    6   14 ar  
    13    6   38 1   
    14    7    8 1   
    15    7   12 ar  
    16    8    9 1   
    17    9   10 1   
    18    9   39 1   
    19    9   40 1   
    20   10   11 1   
    21   10   41 1   
    22   10   42 1   
    23   11   43 1   
    24   12   13 ar  
    25   12   44 1   
    26   13   14 ar  
    27   13   45 1   
    28   14   15 1   
    29   15   16 2   
    30   15   17 1   
    31   16   22 1   
    32   17   18 1   
    33   18   19 1   
    34   18   22 2   
    35   19   20 1   
    36   19   46 1   
    37   19   47 1   
    38   20   21 1   
    39   20   48 1   
    40   20   49 1   
    41   21   50 1   
    42   21   51 1   
    43   21   52 1   
    44   22   23 1   
    45   23   24 1   
    46   23   53 1   
    47   23   54 1   
    48   24   25 1   
    49   25   26 ar  
    50   25   27 ar  
    51   26   31 ar  
    52   27   28 ar  
    53   28   29 1   
    54   28   30 ar  
    55   29   55 1   
    56   29   56 1   
    57   30   31 ar  
    58   30   57 1   
    59   31   32 1   
    60   32   58 1   
    61   32   59 1   
@<TRIPOS>SUBSTRUCTURE
     1 2XM         1 TEMP              0 ****  ****    0 ROOT
