@<TRIPOS>MOLECULE
2XM
   59    61     1     0     0
SMALL
bcc


@<TRIPOS>ATOM
      1 OAE        -0.0050   -0.8510   -0.1680 oh        1 2XM     -0.598800
      2 CAL         1.3990   -0.7170   -0.2190 c3        1 2XM      0.130400
      3 CAN         1.9840   -0.3880    1.1520 c3        1 2XM      0.080400
      4 OAU         1.7780   -1.5690    1.9400 os        1 2XM     -0.326900
      5 CBC         2.0010   -1.4270    3.2950 ca        1 2XM      0.097100
      6 CAI         2.7340   -0.3890    3.8680 ca        1 2XM     -0.129000
      7 CBB         1.4580   -2.4530    4.1140 ca        1 2XM      0.116100
      8 OAT         0.7260   -3.4150    3.4520 os        1 2XM     -0.321900
      9 CAM         0.3770   -4.5730    4.2230 c3        1 2XM      0.081400
     10 CAK        -0.2310   -5.5510    3.2200 c3        1 2XM      0.131400
     11 OAD         0.7430   -6.0560    2.3330 oh        1 2XM     -0.597800
     12 CAG         1.6710   -2.4190    5.4940 ca        1 2XM     -0.177000
     13 CAF         2.4040   -1.3770    6.0590 ca        1 2XM     -0.117000
     14 CAZ         2.9380   -0.3620    5.2570 ca        1 2XM     -0.128500
     15 CBF         3.7080    0.7110    5.8680 cc        1 2XM      0.452900
     16 NAS         3.9470    1.9020    5.3100 nd        1 2XM     -0.614000
     17 SAW         4.4100    0.5100    7.4320 ss        1 2XM     -0.085300
     18 CBE         5.0530    2.0580    7.3800 cc        1 2XM     -0.165700
     19 CAO         5.8630    2.6410    8.4620 c3        1 2XM     -0.014100
     20 CAJ         5.0270    3.4620    9.4290 c3        1 2XM     -0.077400
     21 CAA         5.8860    4.0570   10.5150 c3        1 2XM     -0.095100
     22 CBD         4.7200    2.6780    6.1690 cd        1 2XM      0.336600
     23 CAP         5.1200    4.0540    5.8000 c3        1 2XM     -0.054600
     24 SAV         6.6900    3.8930    4.9810 ss        1 2XM     -0.202400
     25 C2          7.1550    5.5140    4.5900 ca        1 2XM      0.792300
     26 N3          8.3380    5.6070    3.9200 nb        1 2XM     -0.797500
     27 N1          6.3360    6.5350    4.9660 nb        1 2XM     -0.797500
     28 C6          6.7390    7.8020    4.6100 ca        1 2XM      0.706200
     29 NAB         5.8970    8.8800    4.8720 nh        1 2XM     -0.939000
     30 C5          7.9660    8.0200    3.9240 ca        1 2XM     -0.501600
     31 C4          8.7550    6.8790    3.6020 ca        1 2XM      0.706200
     32 NAC        10.0030    7.0540    3.0080 nh        1 2XM     -0.939000
     33 H1         -0.1990   -1.5440    0.4770 ho        1 2XM      0.415000
     34 H2          1.8650   -1.6570   -0.6200 h1        1 2XM      0.057200
     35 H3          1.5880    0.1380   -0.9220 h1        1 2XM      0.057200
     36 H4          1.4530    0.4830    1.6170 h1        1 2XM      0.056200
     37 H5          3.0820   -0.1800    1.0750 h1        1 2XM      0.056200
     38 H6          3.1560    0.4080    3.2380 ha        1 2XM      0.166000
     39 H7         -0.3730   -4.2900    5.0050 h1        1 2XM      0.051700
     40 H8          1.2940   -5.0080    4.6990 h1        1 2XM      0.051700
     41 H9         -0.6260   -6.4490    3.7650 h1        1 2XM      0.057700
     42 H10        -1.0580   -5.0500    2.6490 h1        1 2XM      0.057700
     43 H11         1.1260   -5.2980    1.8720 ho        1 2XM      0.416000
     44 H12         1.2580   -3.2030    6.1430 ha        1 2XM      0.144000
     45 H13         2.5570   -1.3560    7.1500 ha        1 2XM      0.138000
     46 H14         6.6630    3.2950    8.0150 hc        1 2XM      0.062200
     47 H15         6.3870    1.8240    9.0300 hc        1 2XM      0.062200
     48 H16         4.5030    4.2810    8.8680 hc        1 2XM      0.044700
     49 H17         4.2340    2.8140    9.8860 hc        1 2XM      0.044700
     50 H18         6.3990    3.2550   11.0990 hc        1 2XM      0.035700
     51 H19         6.6670    4.7260   10.0790 hc        1 2XM      0.035700
     52 H20         5.2590    4.6580   11.2170 hc        1 2XM      0.035700
     53 H21         4.3680    4.5380    5.1270 h1        1 2XM      0.094200
     54 H22         5.2110    4.6850    6.7190 h1        1 2XM      0.094200
     55 H23         6.3440    9.7640    4.9290 hn        1 2XM      0.416550
     56 H24         5.1460    8.7330    5.5060 hn        1 2XM      0.416550
     57 H25         8.2920    9.0290    3.6530 ha        1 2XM      0.146000
     58 H26        10.4470    6.2470    2.6340 hn        1 2XM      0.416550
     59 H27        10.1070    7.8870    2.4790 hn        1 2XM      0.416550
@<TRIPOS>BOND
     1    1    2 1   
     2    1   33 1   
     3    2    3 1   
     4    2   34 1   
     5    2   35 1   
     6    3    4 1   
     7    3   36 1   
     8    3   37 1   
     9    4    5 1   
    10    5    6 ar  
    11    5    7 ar  
    12    6   14 ar  
    13    6   38 1   
    14    7    8 1   
    15    7   12 ar  
    16    8    9 1   
    17    9   10 1   
    18    9   39 1   
    19    9   40 1   
    20   10   11 1   
    21   10   41 1   
    22   10   42 1   
    23   11   43 1   
    24   12   13 ar  
    25   12   44 1   
    26   13   14 ar  
    27   13   45 1   
    28   14   15 1   
    29   15   16 2   
    30   15   17 1   
    31   16   22 1   
    32   17   18 1   
    33   18   19 1   
    34   18   22 2   
    35   19   20 1   
    36   19   46 1   
    37   19   47 1   
    38   20   21 1   
    39   20   48 1   
    40   20   49 1   
    41   21   50 1   
    42   21   51 1   
    43   21   52 1   
    44   22   23 1   
    45   23   24 1   
    46   23   53 1   
    47   23   54 1   
    48   24   25 1   
    49   25   26 ar  
    50   25   27 ar  
    51   26   31 ar  
    52   27   28 ar  
    53   28   29 1   
    54   28   30 ar  
    55   29   55 1   
    56   29   56 1   
    57   30   31 ar  
    58   30   57 1   
    59   31   32 1   
    60   32   58 1   
    61   32   59 1   
@<TRIPOS>SUBSTRUCTURE
     1 2XM         1 TEMP              0 ****  ****    0 ROOT
