@<TRIPOS>MOLECULE
2XM
   59    61     1     0     0
SMALL
bcc


@<TRIPOS>ATOM
      1 OAE         0.0000   -0.8690   -0.1760 oh        1 2XM     -0.598800
      2 CAL         1.4060   -0.7500   -0.2210 c3        1 2XM      0.130400
      3 CAN         1.9870   -0.4150    1.1490 c3        1 2XM      0.080400
      4 OAU         1.7670   -1.5870    1.9460 os        1 2XM     -0.326900
      5 CBC         1.9930   -1.4390    3.3000 ca        1 2XM      0.097100
      6 CAI         2.7290   -0.3990    3.8670 ca        1 2XM     -0.130000
      7 CBB         1.4490   -2.4590    4.1250 ca        1 2XM      0.116100
      8 OAT         0.7140   -3.4230    3.4690 os        1 2XM     -0.321900
      9 CAM         0.3620   -4.5750    4.2460 c3        1 2XM      0.081400
     10 CAK        -0.2510   -5.5560    3.2500 c3        1 2XM      0.131400
     11 OAD         0.7190   -6.0680    2.3630 oh        1 2XM     -0.597800
     12 CAG         1.6630   -2.4170    5.5050 ca        1 2XM     -0.177000
     13 CAF         2.3990   -1.3740    6.0640 ca        1 2XM     -0.117000
     14 CAZ         2.9340   -0.3650    5.2560 ca        1 2XM     -0.128500
     15 CBF         3.7070    0.7100    5.8600 cc        1 2XM      0.451900
     16 NAS         3.9370    1.9020    5.3010 nd        1 2XM     -0.615000
     17 SAW         4.4260    0.5090    7.4160 ss        1 2XM     -0.085300
     18 CBE         5.0640    2.0600    7.3580 cc        1 2XM     -0.164700
     19 CAO         5.8830    2.6430    8.4330 c3        1 2XM     -0.014100
     20 CAJ         5.0560    3.4700    9.4040 c3        1 2XM     -0.077400
     21 CAA         5.9250    4.0670   10.4810 c3        1 2XM     -0.095100
     22 CBD         4.7160    2.6800    6.1520 cd        1 2XM      0.336600
     23 CAP         5.1080    4.0570    5.7800 c3        1 2XM     -0.054600
     24 SAV         6.6400    3.8970    4.8920 ss        1 2XM     -0.201400
     25 C2          7.1260    5.5240    4.5510 ca        1 2XM      0.792300
     26 N3          8.3180    5.6230    3.8980 nb        1 2XM     -0.797000
     27 N1          6.3120    6.5420    4.9440 nb        1 2XM     -0.797000
     28 C6          6.7490    7.8160    4.6620 ca        1 2XM      0.705700
     29 NAB         6.0130    8.9050    5.1250 nh        1 2XM     -0.938500
     30 C5          7.9690    8.0390    3.9640 ca        1 2XM     -0.500600
     31 C4          8.7320    6.8980    3.5850 ca        1 2XM      0.705700
     32 NAC         9.8880    7.0660    2.8280 nh        1 2XM     -0.938500
     33 H1         -0.2040   -1.5560    0.4730 ho        1 2XM      0.415000
     34 H2          1.6070    0.0970   -0.9300 h1        1 2XM      0.057200
     35 H3          1.8640   -1.6970   -0.6120 h1        1 2XM      0.057200
     36 H4          3.0880   -0.2170    1.0750 h1        1 2XM      0.056200
     37 H5          1.4620    0.4650    1.6050 h1        1 2XM      0.056200
     38 H6          3.1520    0.3950    3.2320 ha        1 2XM      0.166000
     39 H7          1.2780   -5.0100    4.7230 h1        1 2XM      0.051700
     40 H8         -0.3850   -4.2850    5.0290 h1        1 2XM      0.051700
     41 H9         -0.6480   -6.4500    3.8000 h1        1 2XM      0.057700
     42 H10        -1.0780   -5.0560    2.6780 h1        1 2XM      0.057700
     43 H11         1.1040   -5.3140    1.8980 ho        1 2XM      0.416000
     44 H12         1.2490   -3.1980    6.1590 ha        1 2XM      0.144000
     45 H13         2.5530   -1.3480    7.1540 ha        1 2XM      0.138000
     46 H14         6.4080    1.8260    9.0000 hc        1 2XM      0.061700
     47 H15         6.6830    3.2930    7.9800 hc        1 2XM      0.061700
     48 H16         4.5300    4.2880    8.8440 hc        1 2XM      0.045200
     49 H17         4.2660    2.8250    9.8690 hc        1 2XM      0.045200
     50 H18         5.3040    4.6700   11.1860 hc        1 2XM      0.036367
     51 H19         6.4410    3.2660   11.0620 hc        1 2XM      0.036367
     52 H20         6.7030    4.7340   10.0370 hc        1 2XM      0.036367
     53 H21         5.2400    4.6800    6.7000 h1        1 2XM      0.094200
     54 H22         4.3310    4.5500    5.1430 h1        1 2XM      0.094200
     55 H23         5.0830    8.7300    5.4290 hn        1 2XM      0.416050
     56 H24         6.1440    9.7480    4.6170 hn        1 2XM      0.416050
     57 H25         8.3090    9.0520    3.7260 ha        1 2XM      0.146000
     58 H26        10.3360    7.9460    2.9260 hn        1 2XM      0.416050
     59 H27        10.4890    6.2810    2.7270 hn        1 2XM      0.416050
@<TRIPOS>BOND
     1    1    2 1   
     2    1   33 1   
     3    2    3 1   
     4    2   34 1   
     5    2   35 1   
     6    3    4 1   
     7    3   36 1   
     8    3   37 1   
     9    4    5 1   
    10    5    6 ar  
    11    5    7 ar  
    12    6   14 ar  
    13    6   38 1   
    14    7    8 1   
    15    7   12 ar  
    16    8    9 1   
    17    9   10 1   
    18    9   39 1   
    19    9   40 1   
    20   10   11 1   
    21   10   41 1   
    22   10   42 1   
    23   11   43 1   
    24   12   13 ar  
    25   12   44 1   
    26   13   14 ar  
    27   13   45 1   
    28   14   15 1   
    29   15   16 2   
    30   15   17 1   
    31   16   22 1   
    32   17   18 1   
    33   18   19 1   
    34   18   22 2   
    35   19   20 1   
    36   19   46 1   
    37   19   47 1   
    38   20   21 1   
    39   20   48 1   
    40   20   49 1   
    41   21   50 1   
    42   21   51 1   
    43   21   52 1   
    44   22   23 1   
    45   23   24 1   
    46   23   53 1   
    47   23   54 1   
    48   24   25 1   
    49   25   26 ar  
    50   25   27 ar  
    51   26   31 ar  
    52   27   28 ar  
    53   28   29 1   
    54   28   30 ar  
    55   29   55 1   
    56   29   56 1   
    57   30   31 ar  
    58   30   57 1   
    59   31   32 1   
    60   32   58 1   
    61   32   59 1   
@<TRIPOS>SUBSTRUCTURE
     1 2XM         1 TEMP              0 ****  ****    0 ROOT
