@<TRIPOS>MOLECULE
2XN
   59    61     1     0     0
SMALL
bcc


@<TRIPOS>ATOM
      1 CAD        -1.1050    0.5750   -1.1510 c3        1 2XN     -0.356300
      2 SBG         0.4810    0.7320   -1.7530 s6        1 2XN      1.467900
      3 OAG         1.2170   -0.4000   -1.3390 o         1 2XN     -0.665800
      4 OAH         0.3840    0.9520   -3.1470 o         1 2XN     -0.665800
      5 NAR         1.0210    2.0640   -1.0350 n3        1 2XN     -0.925100
      6 CAM         1.9660    2.1070    0.0420 c3        1 2XN      0.219800
      7 CAN         3.2170    2.9390   -0.2750 c3        1 2XN      0.111400
      8 OAT         2.7960    4.3110   -0.3600 os        1 2XN     -0.338900
      9 CBC         3.4420    5.0480   -1.3400 ca        1 2XN      0.063100
     10 CAL         4.2620    6.1010   -0.9340 ca        1 2XN     -0.102000
     11 CBB         3.1960    4.8290   -2.7170 ca        1 2XN      0.115100
     12 OAS         2.3750    3.7650   -3.0170 os        1 2XN     -0.336900
     13 CAA         2.1480    3.4980   -4.3990 c3        1 2XN      0.097700
     14 CAJ         3.7830    5.6730   -3.6660 ca        1 2XN     -0.197000
     15 CAI         4.5950    6.7270   -3.2530 ca        1 2XN     -0.056000
     16 CAY         4.8360    6.9520   -1.8910 ca        1 2XN     -0.153500
     17 CBD         5.6720    8.0570   -1.4520 cc        1 2XN      0.452900
     18 NAQ         6.5900    8.6730   -2.2060 nd        1 2XN     -0.613000
     19 SAV         5.5270    8.6950    0.1440 ss        1 2XN     -0.084300
     20 CAZ         6.7230    9.8280   -0.1620 cc        1 2XN     -0.169700
     21 CAB         7.1830   10.8110    0.8210 c3        1 2XN     -0.027800
     22 CBE         7.1940    9.6900   -1.4740 cd        1 2XN      0.334600
     23 CBF         8.2630   10.5430   -2.0610 c3        1 2XN     -0.019900
     24 CAC         9.2740    9.7610   -2.8590 c3        1 2XN     -0.084100
     25 SAU         7.3540   11.7080   -3.0780 ss        1 2XN     -0.206400
     26 C2          8.3560   13.1090   -3.2510 ca        1 2XN      0.794300
     27 N3          7.8070   14.0810   -4.0340 nb        1 2XN     -0.798000
     28 N1          9.5620   13.1430   -2.6200 nb        1 2XN     -0.798000
     29 C6         10.3200   14.2750   -2.8110 ca        1 2XN      0.704700
     30 NAE        11.6070   14.3290   -2.2780 nh        1 2XN     -0.938500
     31 C5          9.8390   15.3610   -3.5950 ca        1 2XN     -0.501600
     32 C4          8.5530   15.2260   -4.1900 ca        1 2XN      0.704700
     33 NAF         8.0070   16.2990   -4.8930 nh        1 2XN     -0.938500
     34 H1         -1.7530    1.4600   -1.3590 h1        1 2XN      0.112700
     35 H2         -1.6130   -0.3020   -1.6280 h1        1 2XN      0.112700
     36 H3         -1.1450    0.3980   -0.0490 h1        1 2XN      0.112700
     37 H4          0.8670    2.9670   -1.4330 hn        1 2XN      0.469800
     38 H5          2.3020    1.0580    0.2910 h1        1 2XN      0.063700
     39 H6          1.4700    2.5540    0.9520 h1        1 2XN      0.063700
     40 H7          3.9410    2.8670    0.5790 h1        1 2XN      0.056700
     41 H8          3.7060    2.6050   -1.2250 h1        1 2XN      0.056700
     42 H9          4.4400    6.2580    0.1410 ha        1 2XN      0.151000
     43 H10         1.6330    4.3630   -4.8830 h1        1 2XN      0.059700
     44 H11         3.1100    3.2730   -4.9180 h1        1 2XN      0.059700
     45 H12         1.4810    2.5940   -4.3760 h1        1 2XN      0.059700
     46 H13         3.6050    5.5160   -4.7390 ha        1 2XN      0.147000
     47 H14         5.0500    7.3870   -4.0100 ha        1 2XN      0.161000
     48 H15         6.6280   10.7100    1.7860 hc        1 2XN      0.054367
     49 H16         7.0290   11.8520    0.4340 hc        1 2XN      0.054367
     50 H17         8.2760   10.6770    1.0280 hc        1 2XN      0.054367
     51 H18         8.7860   11.0810   -1.2240 h1        1 2XN      0.095700
     52 H19        10.1110   10.4280   -3.1760 hc        1 2XN      0.051367
     53 H20         8.8070    9.3130   -3.7710 hc        1 2XN      0.051367
     54 H21         9.6940    8.9330   -2.2370 hc        1 2XN      0.051367
     55 H22        11.9640   15.2430   -2.1280 hn        1 2XN      0.415550
     56 H23        11.8440   13.6560   -1.5870 hn        1 2XN      0.415550
     57 H24        10.4370   16.2670   -3.7360 ha        1 2XN      0.146000
     58 H25         7.1980   16.1190   -5.4430 hn        1 2XN      0.415550
     59 H26         8.6680   16.9230   -5.2910 hn        1 2XN      0.415550
@<TRIPOS>BOND
     1    1    2 1   
     2    1   34 1   
     3    1   35 1   
     4    1   36 1   
     5    2    3 2   
     6    2    4 2   
     7    2    5 1   
     8    5    6 1   
     9    5   37 1   
    10    6    7 1   
    11    6   38 1   
    12    6   39 1   
    13    7    8 1   
    14    7   40 1   
    15    7   41 1   
    16    8    9 1   
    17    9   10 ar  
    18    9   11 ar  
    19   10   16 ar  
    20   10   42 1   
    21   11   12 1   
    22   11   14 ar  
    23   12   13 1   
    24   13   43 1   
    25   13   44 1   
    26   13   45 1   
    27   14   15 ar  
    28   14   46 1   
    29   15   16 ar  
    30   15   47 1   
    31   16   17 1   
    32   17   18 2   
    33   17   19 1   
    34   18   22 1   
    35   19   20 1   
    36   20   21 1   
    37   20   22 2   
    38   21   48 1   
    39   21   49 1   
    40   21   50 1   
    41   22   23 1   
    42   23   24 1   
    43   23   25 1   
    44   23   51 1   
    45   24   52 1   
    46   24   53 1   
    47   24   54 1   
    48   25   26 1   
    49   26   27 ar  
    50   26   28 ar  
    51   27   32 ar  
    52   28   29 ar  
    53   29   30 1   
    54   29   31 ar  
    55   30   55 1   
    56   30   56 1   
    57   31   32 ar  
    58   31   57 1   
    59   32   33 1   
    60   33   58 1   
    61   33   59 1   
@<TRIPOS>SUBSTRUCTURE
     1 2XN         1 TEMP              0 ****  ****    0 ROOT
