@<TRIPOS>MOLECULE
2XN
   60    62     1     0     0
SMALL
bcc


@<TRIPOS>ATOM
      1 CAD        -1.1460    2.6420   -0.5290 c3        1 2XN     -0.462300
      2 SBG        -0.3310    1.2260   -0.7300 s6        1 2XN      1.413900
      3 OAG        -0.0690    0.5740    0.4570 o         1 2XN     -0.561800
      4 OAH        -0.7030    0.5390   -1.8680 o         1 2XN     -0.561800
      5 NAR         1.3110    1.9190   -1.2450 n4        1 2XN     -0.722900
      6 CAM         2.4330    1.5960   -0.3270 c3        1 2XN      0.099800
      7 CAN         3.6620    2.4820   -0.5730 c3        1 2XN      0.109400
      8 OAT         3.1950    3.8360   -0.5230 os        1 2XN     -0.358900
      9 CBC         3.7470    4.6710   -1.4900 ca        1 2XN      0.038100
     10 CAL         4.5600    5.7190   -1.0540 ca        1 2XN     -0.093000
     11 CBB         3.4110    4.5440   -2.8550 ca        1 2XN      0.086100
     12 OAS         2.5960    3.4730   -3.1940 os        1 2XN     -0.408900
     13 CAA         2.4560    3.2190   -4.5930 c3        1 2XN      0.112700
     14 CAJ         3.8950    5.4810   -3.7730 ca        1 2XN     -0.172000
     15 CAI         4.6980    6.5320   -3.3340 ca        1 2XN     -0.049000
     16 CAY         5.0340    6.6620   -1.9770 ca        1 2XN     -0.106500
     17 CBD         5.8680    7.7620   -1.5200 cc        1 2XN      0.399900
     18 NAQ         6.6840    8.4650   -2.3180 nd        1 2XN     -0.595000
     19 SAV         5.8670    8.2810    0.1190 ss        1 2XN     -0.069300
     20 CAZ         6.9840    9.4820   -0.2230 cc        1 2XN     -0.146700
     21 CAB         7.5050   10.4180    0.7760 c3        1 2XN     -0.036800
     22 CBE         7.3230    9.4540   -1.5840 cd        1 2XN      0.341600
     23 CBF         8.2850   10.3980   -2.2160 c3        1 2XN     -0.025900
     24 CAC         9.2780    9.7120   -3.1190 c3        1 2XN     -0.083100
     25 SAU         7.2300   11.5320   -3.1180 ss        1 2XN     -0.221400
     26 C2          8.0920   13.0350   -3.2220 ca        1 2XN      0.798300
     27 N3          7.3860   14.0250   -3.8340 nb        1 2XN     -0.802500
     28 N1          9.3510   13.1070   -2.7120 nb        1 2XN     -0.802500
     29 C6          9.9780   14.3300   -2.8100 ca        1 2XN      0.713700
     30 NAE        11.2250   14.5010   -2.2180 nh        1 2XN     -0.943000
     31 C5          9.3460   15.4320   -3.4490 ca        1 2XN     -0.501600
     32 C4          8.0330   15.2350   -3.9660 ca        1 2XN      0.713700
     33 NAF         7.4110   16.2580   -4.6680 nh        1 2XN     -0.943000
     34 H1         -2.2040    2.4680   -0.1650 h1        1 2XN      0.174033
     35 H2         -0.7230    3.3490    0.2380 h1        1 2XN      0.174033
     36 H3         -1.2880    3.2580   -1.4590 h1        1 2XN      0.174033
     37 H4          1.2940    2.9470   -1.3310 hn        1 2XN      0.473800
     38 H5          2.7200    0.5140   -0.4570 hx        1 2XN      0.114200
     39 H6          2.0700    1.7510    0.7320 hx        1 2XN      0.114200
     40 H7          4.3910    2.3380    0.2680 h1        1 2XN      0.088700
     41 H8          4.1450    2.2480   -1.5560 h1        1 2XN      0.088700
     42 H9          4.8120    5.7970    0.0170 ha        1 2XN      0.162000
     43 H10         3.4560    3.0990   -5.0750 h1        1 2XN      0.058367
     44 H11         1.8790    4.0450   -5.0770 h1        1 2XN      0.058367
     45 H12         1.8800    2.2600   -4.6300 h1        1 2XN      0.058367
     46 H13         3.6480    5.4040   -4.8420 ha        1 2XN      0.156000
     47 H14         5.0720    7.2680   -4.0670 ha        1 2XN      0.181000
     48 H15         7.2660   11.4730    0.4830 hc        1 2XN      0.063033
     49 H16         8.6200   10.3250    0.8560 hc        1 2XN      0.063033
     50 H17         7.0640   10.2250    1.7850 hc        1 2XN      0.063033
     51 H18         8.8390   10.9380   -1.4010 h1        1 2XN      0.103700
     52 H19        10.0390   10.4480   -3.4760 hc        1 2XN      0.052033
     53 H20         9.8050    8.8970   -2.5640 hc        1 2XN      0.052033
     54 H21         8.7710    9.2630   -4.0080 hc        1 2XN      0.052033
     55 H22        11.7680   15.2530   -2.5730 hn        1 2XN      0.422300
     56 H23        11.7300   13.6860   -1.9590 hn        1 2XN      0.422300
     57 H24         9.8510   16.3990   -3.5420 ha        1 2XN      0.150000
     58 H25         7.7440   17.1750   -4.4930 hn        1 2XN      0.422300
     59 H26         6.4450   16.1650   -4.8780 hn        1 2XN      0.422300
     60 HAR2        1.5610    1.5870   -2.1830 hn        1 2XN      0.473800
@<TRIPOS>BOND
     1    1    2 1   
     2    1   34 1   
     3    1   35 1   
     4    1   36 1   
     5    2    3 2   
     6    2    4 2   
     7    2    5 1   
     8    5    6 1   
     9    5   37 1   
    10    5   60 1   
    11    6    7 1   
    12    6   38 1   
    13    6   39 1   
    14    7    8 1   
    15    7   40 1   
    16    7   41 1   
    17    8    9 1   
    18    9   10 ar  
    19    9   11 ar  
    20   10   16 ar  
    21   10   42 1   
    22   11   12 1   
    23   11   14 ar  
    24   12   13 1   
    25   13   43 1   
    26   13   44 1   
    27   13   45 1   
    28   14   15 ar  
    29   14   46 1   
    30   15   16 ar  
    31   15   47 1   
    32   16   17 1   
    33   17   18 2   
    34   17   19 1   
    35   18   22 1   
    36   19   20 1   
    37   20   21 1   
    38   20   22 2   
    39   21   48 1   
    40   21   49 1   
    41   21   50 1   
    42   22   23 1   
    43   23   24 1   
    44   23   25 1   
    45   23   51 1   
    46   24   52 1   
    47   24   53 1   
    48   24   54 1   
    49   25   26 1   
    50   26   27 ar  
    51   26   28 ar  
    52   27   32 ar  
    53   28   29 ar  
    54   29   30 1   
    55   29   31 ar  
    56   30   55 1   
    57   30   56 1   
    58   31   32 ar  
    59   31   57 1   
    60   32   33 1   
    61   33   58 1   
    62   33   59 1   
@<TRIPOS>SUBSTRUCTURE
     1 2XN         1 TEMP              0 ****  ****    0 ROOT
