@<TRIPOS>MOLECULE
2XN
   60    62     1     0     0
SMALL
bcc


@<TRIPOS>ATOM
      1 CAD        -1.1340    2.6260   -0.5520 c3        1 2XN     -0.462300
      2 SBG        -0.3170    1.2120   -0.7540 s6        1 2XN      1.413900
      3 OAG        -0.0560    0.5580    0.4310 o         1 2XN     -0.561800
      4 OAH        -0.6870    0.5260   -1.8950 o         1 2XN     -0.561800
      5 NAR         1.3240    1.9090   -1.2660 ny        1 2XN     -0.722900
      6 CAM         2.4460    1.5840   -0.3470 c3        1 2XN      0.099800
      7 CAN         3.6740    2.4730   -0.5900 c3        1 2XN      0.109400
      8 OAT         3.2050    3.8270   -0.5370 os        1 2XN     -0.358900
      9 CBC         3.7560    4.6650   -1.5010 ca        1 2XN      0.038100
     10 CAL         4.5670    5.7140   -1.0610 ca        1 2XN     -0.093000
     11 CBB         3.4230    4.5410   -2.8670 ca        1 2XN      0.086100
     12 OAS         2.6100    3.4690   -3.2090 os        1 2XN     -0.408900
     13 CAA         2.4720    3.2190   -4.6100 c3        1 2XN      0.112700
     14 CAJ         3.9060    5.4820   -3.7810 ca        1 2XN     -0.172000
     15 CAI         4.7050    6.5330   -3.3380 ca        1 2XN     -0.049000
     16 CAY         5.0400    6.6600   -1.9810 ca        1 2XN     -0.106500
     17 CBD         5.8720    7.7600   -1.5200 cc        1 2XN      0.400900
     18 NAQ         6.6830    8.4710   -2.3170 nd        1 2XN     -0.595000
     19 SAV         5.8730    8.2700    0.1220 ss        1 2XN     -0.070300
     20 CAZ         6.9850    9.4770   -0.2160 cc        1 2XN     -0.146700
     21 CAB         7.5050   10.4090    0.7870 c3        1 2XN     -0.036800
     22 CBE         7.3210    9.4570   -1.5780 cd        1 2XN      0.341600
     23 CBF         8.2770   10.4090   -2.2070 c3        1 2XN     -0.025900
     24 CAC         9.2690    9.7320   -3.1190 c3        1 2XN     -0.083100
     25 SAU         7.2150   11.5460   -3.0980 ss        1 2XN     -0.221400
     26 C2          8.0720   13.0520   -3.1950 ca        1 2XN      0.798300
     27 N3          7.3610   14.0440   -3.7970 nb        1 2XN     -0.802500
     28 N1          9.3320   13.1240   -2.6890 nb        1 2XN     -0.802500
     29 C6          9.9560   14.3500   -2.7820 ca        1 2XN      0.713700
     30 NAE        11.2050   14.5210   -2.1930 nv        1 2XN     -0.943000
     31 C5          9.3180   15.4540   -3.4100 ca        1 2XN     -0.501600
     32 C4          8.0030   15.2570   -3.9240 ca        1 2XN      0.713700
     33 NAF         7.3760   16.2820   -4.6160 nv        1 2XN     -0.943000
     34 H1         -2.1930    2.4500   -0.1900 h1        1 2XN      0.174033
     35 H2         -0.7140    3.3320    0.2170 h1        1 2XN      0.174033
     36 H3         -1.2760    3.2440   -1.4810 h1        1 2XN      0.174033
     37 H4          1.3070    2.9370   -1.3490 hn        1 2XN      0.473800
     38 H5          2.7350    0.5040   -0.4810 hx        1 2XN      0.114700
     39 H6          2.0810    1.7360    0.7110 hx        1 2XN      0.114700
     40 H7          4.1580    2.2420   -1.5730 h1        1 2XN      0.088700
     41 H8          4.4020    2.3280    0.2520 h1        1 2XN      0.088700
     42 H9          4.8180    5.7890    0.0100 ha        1 2XN      0.162000
     43 H10         1.8940    4.0440   -5.0920 h1        1 2XN      0.058367
     44 H11         1.8990    2.2580   -4.6500 h1        1 2XN      0.058367
     45 H12         3.4730    3.1010   -5.0910 h1        1 2XN      0.058367
     46 H13         3.6600    5.4070   -4.8510 ha        1 2XN      0.156000
     47 H14         5.0790    7.2720   -4.0690 ha        1 2XN      0.181000
     48 H15         8.6200   10.3190    0.8640 hc        1 2XN      0.063033
     49 H16         7.2620   11.4650    0.5000 hc        1 2XN      0.063033
     50 H17         7.0670   10.2080    1.7960 hc        1 2XN      0.063033
     51 H18         8.8320   10.9450   -1.3900 h1        1 2XN      0.103700
     52 H19         9.8000    8.9150   -2.5710 hc        1 2XN      0.052033
     53 H20        10.0270   10.4730   -3.4730 hc        1 2XN      0.052033
     54 H21         8.7610    9.2880   -4.0090 hc        1 2XN      0.052033
     55 H22        11.7130   13.7050   -1.9420 hn        1 2XN      0.422300
     56 H23        11.7440   15.2760   -2.5450 hn        1 2XN      0.422300
     57 H24         9.8190   16.4240   -3.4980 ha        1 2XN      0.150000
     58 H25         6.4090   16.1880   -4.8240 hn        1 2XN      0.422300
     59 H26         7.7070   17.1990   -4.4360 hn        1 2XN      0.422300
     60 HAR2        1.5760    1.5800   -2.2050 hn        1 2XN      0.473800
@<TRIPOS>BOND
     1    1    2 1   
     2    1   34 1   
     3    1   35 1   
     4    1   36 1   
     5    2    3 2   
     6    2    4 2   
     7    2    5 1   
     8    5    6 1   
     9    5   37 1   
    10    5   60 1   
    11    6    7 1   
    12    6   38 1   
    13    6   39 1   
    14    7    8 1   
    15    7   40 1   
    16    7   41 1   
    17    8    9 1   
    18    9   10 ar  
    19    9   11 ar  
    20   10   16 ar  
    21   10   42 1   
    22   11   12 1   
    23   11   14 ar  
    24   12   13 1   
    25   13   43 1   
    26   13   44 1   
    27   13   45 1   
    28   14   15 ar  
    29   14   46 1   
    30   15   16 ar  
    31   15   47 1   
    32   16   17 1   
    33   17   18 2   
    34   17   19 1   
    35   18   22 1   
    36   19   20 1   
    37   20   21 1   
    38   20   22 2   
    39   21   48 1   
    40   21   49 1   
    41   21   50 1   
    42   22   23 1   
    43   23   24 1   
    44   23   25 1   
    45   23   51 1   
    46   24   52 1   
    47   24   53 1   
    48   24   54 1   
    49   25   26 1   
    50   26   27 ar  
    51   26   28 ar  
    52   27   32 ar  
    53   28   29 ar  
    54   29   30 1   
    55   29   31 ar  
    56   30   55 1   
    57   30   56 1   
    58   31   32 ar  
    59   31   57 1   
    60   32   33 1   
    61   33   58 1   
    62   33   59 1   
@<TRIPOS>SUBSTRUCTURE
     1 2XN         1 TEMP              0 ****  ****    0 ROOT
