@<TRIPOS>MOLECULE
2XO
   19    20     1     0     0
SMALL
bcc


@<TRIPOS>ATOM
      1 SAH         0.2770    0.7780   -0.2080 sh        1 2XO     -0.374900
      2 CAI         1.7140   -0.2270    0.0870 c3        1 2XO     -0.007600
      3 CAJ         3.1080   -0.0940    3.4510 ca        1 2XO      0.062400
      4 NAK         2.6990   -0.8360    2.3270 nc        1 2XO     -0.552100
      5 CAL         2.2320    0.0760    1.4460 cd        1 2XO      0.411800
      6 NAM         2.3420    1.4070    1.9210 na        1 2XO     -0.268300
      7 CAN         2.8670    1.3200    3.2120 ca        1 2XO     -0.070200
      8 CAO         3.1810    2.2860    4.1760 ca        1 2XO     -0.134000
      9 CAP         3.7320    1.8400    5.3680 ca        1 2XO     -0.110000
     10 CAQ         3.9740    0.4750    5.6090 ca        1 2XO     -0.154000
     11 CAR         3.6720   -0.4990    4.6700 ca        1 2XO     -0.067000
     12 H1          0.2380    0.6870   -1.5270 hs        1 2XO      0.211800
     13 H2          1.4470   -1.3120    0.0120 h1        1 2XO      0.092700
     14 H3          2.5080   -0.0110   -0.6710 h1        1 2XO      0.092700
     15 H5          1.9090    2.1930    1.5120 hn        1 2XO      0.315700
     16 H6          2.9970    3.3520    3.9940 ha        1 2XO      0.137000
     17 H7          3.9890    2.5710    6.1490 ha        1 2XO      0.132000
     18 H8          4.4140    0.1780    6.5730 ha        1 2XO      0.133000
     19 H9          3.8650   -1.5630    4.8660 ha        1 2XO      0.148000
@<TRIPOS>BOND
     1    1    2 1   
     2    1   12 1   
     3    2    5 1   
     4    2   13 1   
     5    2   14 1   
     6    3    4 1   
     7    3    7 ar  
     8    3   11 ar  
     9    4    5 2   
    10    5    6 1   
    11    6    7 1   
    12    6   15 1   
    13    7    8 ar  
    14    8    9 ar  
    15    8   16 1   
    16    9   10 ar  
    17    9   17 1   
    18   10   11 ar  
    19   10   18 1   
    20   11   19 1   
@<TRIPOS>SUBSTRUCTURE
     1 2XO         1 TEMP              0 ****  ****    0 ROOT
