@<TRIPOS>MOLECULE
2XP
   16    15     1     0     0
SMALL
bcc


@<TRIPOS>ATOM
      1 O3         -0.0570   -0.4220   -0.2530 o         1 2XP     -0.819800
      2 C1          1.1730   -0.3900    0.0220 c         1 2XP      0.784300
      3 O2          1.6760   -0.6400    1.1510 o         1 2XP     -0.819800
      4 C2          2.1610   -0.0240   -1.1140 ce        1 2XP      0.349300
      5 N           3.4420   -0.0880   -1.0160 n2        1 2XP     -0.818100
      6 C3          1.4670    0.4560   -2.3600 c3        1 2XP     -0.133500
      7 C4          2.2120    0.2650   -3.6210 c2        1 2XP     -0.017200
      8 C5          1.9880    0.9190   -4.7720 ce        1 2XP     -0.347200
      9 C6          0.9730    1.9500   -4.9570 c         1 2XP      0.574100
     10 O1          0.7910    2.5360   -6.0320 o         1 2XP     -0.580100
     11 H2          3.7460   -0.4030   -0.1130 hn        1 2XP      0.392400
     12 H3          1.2110    1.5390   -2.1990 hc        1 2XP      0.088200
     13 H4          3.0070   -0.5030   -3.5930 ha        1 2XP      0.135000
     14 H5          2.5920    0.6930   -5.6670 ha        1 2XP      0.128000
     15 H6          0.3470    2.1940   -4.0670 h4        1 2XP     -0.004800
     16 H7          0.4850   -0.1030   -2.4220 hc        1 2XP      0.088200
@<TRIPOS>BOND
     1    1    2 1   
     2    2    3 1   
     3    2    4 1   
     4    4    5 2   
     5    4    6 1   
     6    5   11 1   
     7    6    7 1   
     8    6   12 1   
     9    6   16 1   
    10    7    8 2   
    11    7   13 1   
    12    8    9 1   
    13    8   14 1   
    14    9   10 2   
    15    9   15 1   
@<TRIPOS>SUBSTRUCTURE
     1 2XP         1 TEMP              0 ****  ****    0 ROOT
