@<TRIPOS>MOLECULE
2XP
   16    12     1     0     0
SMALL
bcc


@<TRIPOS>ATOM
      1 O3         -3.1790   -1.0080    1.9210 o         1 2XP     -0.556000
      2 C1         -1.9200   -1.0080    1.9210 c1        1 2XP      0.323000
      3 O2         -1.2910   -1.0080    3.0110 os        1 2XP     -0.553000
      4 C2         -1.1640   -1.0070    0.6110 c2        1 2XP     -0.081000
      5 N          -0.7900   -2.1370    0.0710 n1        1 2XP     -0.287000
      6 C3         -0.8400    0.3020   -0.0750 c3        1 2XP     -0.137000
      7 C4          0.6550    0.4040   -0.2870 c2        1 2XP     -0.008000
      8 C5          1.1490    1.2690   -1.1940 c1        1 2XP     -0.326000
      9 C6          2.6430    1.3710   -1.4060 c1        1 2XP      0.224000
     10 O1          3.1770    0.7290   -2.2910 o         1 2XP     -0.339000
     11 H2         -0.9860   -2.9260    0.4840 DU        1 2XP      0.147000
     12 H3         -1.1400    1.0450    0.4830 hc        1 2XP      0.128500
     13 H4          1.2610   -0.1530    0.2370 ha        1 2XP      0.128000
     14 H5          0.5430    1.8320   -1.7130 ha        1 2XP      0.140000
     15 H6          3.1790    1.9550   -0.8360 ha        1 2XP      0.068000
     16 H7         -1.2950    0.3390   -0.9380 hc        1 2XP      0.128500
@<TRIPOS>BOND
     1    1    2 1   
     2    2    4 1   
     3    4    5 1   
     4    4    6 1   
     5    6    7 1   
     6    6   12 1   
     7    6   16 1   
     8    7    8 1   
     9    7   13 1   
    10    8   14 1   
    11    9   10 1   
    12    9   15 1   
@<TRIPOS>SUBSTRUCTURE
     1 2XP         1 TEMP              0 ****  ****    0 ROOT
