@<TRIPOS>MOLECULE
2XP
   16    15     1     0     0
SMALL
bcc


@<TRIPOS>ATOM
      1 O3         -2.9700   -0.4500    0.8500 o         1 2XP     -0.812800
      2 C1         -2.1170    0.4640    0.7400 c         1 2XP      0.839300
      3 O2         -1.9120    1.4010    1.5570 o         1 2XP     -0.812800
      4 C2         -1.1540    0.3880   -0.4740 ce        1 2XP      0.369300
      5 N          -1.4540    0.8500   -1.6280 n2        1 2XP     -0.776100
      6 C3          0.1440   -0.3030   -0.0960 c3        1 2XP     -0.174500
      7 C4          0.9280    0.5370    0.8360 c2        1 2XP     -0.030200
      8 C5          2.2650    0.5750    0.9420 ce        1 2XP     -0.344200
      9 C6          3.1960   -0.2090    0.1420 c         1 2XP      0.573100
     10 O1          4.4260   -0.1540    0.2740 o         1 2XP     -0.580100
     11 H2         -0.7420    0.7380   -2.3250 hn        1 2XP      0.331400
     12 H3         -0.1360   -1.2580    0.4350 hc        1 2XP      0.055700
     13 H4          0.2940    1.1720    1.5000 ha        1 2XP      0.192000
     14 H5          2.7370    1.2400    1.6860 ha        1 2XP      0.135000
     15 H6          2.7480   -0.8900   -0.6210 h4        1 2XP     -0.020800
     16 H7          0.7410   -0.5850   -1.0040 hc        1 2XP      0.055700
@<TRIPOS>BOND
     1    1    2 1   
     2    2    3 1   
     3    2    4 1   
     4    4    5 2   
     5    4    6 1   
     6    5   11 1   
     7    6    7 1   
     8    6   12 1   
     9    6   16 1   
    10    7    8 2   
    11    7   13 1   
    12    8    9 1   
    13    8   14 1   
    14    9   10 2   
    15    9   15 1   
@<TRIPOS>SUBSTRUCTURE
     1 2XP         1 TEMP              0 ****  ****    0 ROOT
