@<TRIPOS>MOLECULE
2XP
   16    15     1     0     0
SMALL
bcc


@<TRIPOS>ATOM
      1 O3         -0.0340   -0.3420   -0.2050 o         1 2XP     -0.819800
      2 C1          1.2030   -0.3620    0.0370 c         1 2XP      0.784300
      3 O2          1.7240   -0.6310    1.1540 o         1 2XP     -0.819800
      4 C2          2.1750   -0.0410   -1.1250 ce        1 2XP      0.349300
      5 N           3.4540   -0.1600   -1.0600 n2        1 2XP     -0.818100
      6 C3          1.4700    0.4660   -2.3540 c3        1 2XP     -0.133500
      7 C4          2.1720    0.2400   -3.6340 c2        1 2XP     -0.017200
      8 C5          1.9480    0.9020   -4.7800 ce        1 2XP     -0.347200
      9 C6          0.9760    1.9780   -4.9410 c         1 2XP      0.574100
     10 O1          0.7920    2.5690   -6.0130 o         1 2XP     -0.580100
     11 H2          3.7680   -0.4860   -0.1650 hn        1 2XP      0.392400
     12 H3          1.2660    1.5600   -2.1900 hc        1 2XP      0.088200
     13 H4          2.9320   -0.5640   -3.6240 ha        1 2XP      0.135000
     14 H5          2.5170    0.6470   -5.6890 ha        1 2XP      0.128000
     15 H6          0.3850    2.2520   -4.0350 h4        1 2XP     -0.004800
     16 H7          0.4630   -0.0490   -2.3880 hc        1 2XP      0.088200
@<TRIPOS>BOND
     1    1    2 1   
     2    2    3 1   
     3    2    4 1   
     4    4    5 2   
     5    4    6 1   
     6    5   11 1   
     7    6    7 1   
     8    6   12 1   
     9    6   16 1   
    10    7    8 2   
    11    7   13 1   
    12    8    9 1   
    13    8   14 1   
    14    9   10 2   
    15    9   15 1   
@<TRIPOS>SUBSTRUCTURE
     1 2XP         1 TEMP              0 ****  ****    0 ROOT
