@<TRIPOS>MOLECULE
2XQ
   56    59     1     0     0
SMALL
bcc


@<TRIPOS>ATOM
      1 CAH         0.1000   -0.5720    0.2560 ca        1 2XQ     -0.074000
      2 CAE         1.4910   -0.4630    0.2890 ca        1 2XQ     -0.249300
      3 CAG         2.0860    0.2450    1.3490 ca        1 2XQ      0.394200
      4 NAS         1.3820    0.8260    2.3400 nb        1 2XQ     -0.665000
      5 CAM         0.0410    0.7100    2.2970 ca        1 2XQ      0.398200
      6 CAX        -0.6500    0.0230    1.2770 ca        1 2XQ     -0.212600
      7 CAQ        -2.1460   -0.0250    1.2840 c3        1 2XQ      0.215100
      8 NAT        -2.6790   -1.3560    1.0570 n3        1 2XQ     -0.824200
      9 CAO        -4.1100   -1.4310    1.2690 c3        1 2XQ      0.166800
     10 CAN        -4.6420   -2.8610    1.2060 c3        1 2XQ     -0.091400
     11 CAP        -6.1530   -2.8360    1.3580 c3        1 2XQ      0.128400
     12 OAU        -6.5640   -4.2100    1.3170 os        1 2XQ     -0.323900
     13 CBD        -7.9130   -4.4390    1.4780 ca        1 2XQ      0.188100
     14 CAI        -8.8840   -3.4410    1.6140 ca        1 2XQ     -0.236000
     15 CAF       -10.2390   -3.7680    1.7640 ca        1 2XQ     -0.067000
     16 CAL       -10.6840   -5.0860    1.7840 ca        1 2XQ     -0.162000
     17 CBF        -9.7060   -6.0690    1.6480 ca        1 2XQ      0.107100
     18 OAW        -9.9230   -7.4440    1.6370 os        1 2XQ     -0.192200
     19 CBG        -8.3160   -5.7860    1.4960 ca        1 2XQ     -0.144800
     20 CAZ        -7.6520   -7.0760    1.3900 cc        1 2XQ     -0.032400
     21 CAA        -6.2120   -7.2870    1.2350 c3        1 2XQ     -0.041900
     22 CBE        -8.6450   -8.0300    1.4730 cd        1 2XQ     -0.022100
     23 CAR        -8.6500   -9.5030    1.4020 c3        1 2XQ      0.201600
     24 OAV        -8.3110   -9.9850    2.7170 os        1 2XQ     -0.302900
     25 CBC        -8.3490  -11.3520    2.8760 ca        1 2XQ      0.107100
     26 CAK        -8.5980  -12.2760    1.8580 ca        1 2XQ     -0.178000
     27 CAJ        -8.6010  -13.6400    2.1330 ca        1 2XQ     -0.121000
     28 CAY        -8.3530  -14.1040    3.4310 ca        1 2XQ      0.081900
     29 FAB        -8.3560  -15.4310    3.6970 f         1 2XQ     -0.121900
     30 CBA        -8.0960  -13.1800    4.4790 ca        1 2XQ      0.087900
     31 FAC        -7.8550  -13.6200    5.7320 f         1 2XQ     -0.107900
     32 CBB        -8.0950  -11.7930    4.2010 ca        1 2XQ      0.091900
     33 FAD        -7.8520  -10.9060    5.1870 f         1 2XQ     -0.103900
     34 HAH        -0.4030   -1.1160   -0.5580 ha        1 2XQ      0.153000
     35 HAE         2.1120   -0.9170   -0.4940 ha        1 2XQ      0.145000
     36 HAG         3.1830    0.3550    1.4110 h4        1 2XQ      0.023100
     37 HAM        -0.5070    1.1950    3.1250 h4        1 2XQ      0.021100
     38 HAQ1       -2.5280    0.6330    0.4480 h1        1 2XQ      0.040200
     39 HAQ2       -2.5220    0.4220    2.2540 h1        1 2XQ      0.040200
     40 HAT        -2.1980   -2.0340    1.6180 hn        1 2XQ      0.364800
     41 HAO1       -4.4190   -0.9790    2.2600 h1        1 2XQ      0.031200
     42 HAO2       -4.6010   -0.8190    0.4590 h1        1 2XQ      0.031200
     43 HAN1       -4.1950   -3.4870    2.0220 hc        1 2XQ      0.065200
     44 HAN2       -4.3720   -3.3400    0.2290 hc        1 2XQ      0.065200
     45 HAP1       -6.4560   -2.3830    2.3380 h1        1 2XQ      0.043700
     46 HAP2       -6.6360   -2.2770    0.5150 h1        1 2XQ      0.043700
     47 HAI        -8.5980   -2.3800    1.6050 ha        1 2XQ      0.139000
     48 HAF       -10.9710   -2.9530    1.8690 ha        1 2XQ      0.137000
     49 HAL       -11.7430   -5.3460    1.9020 ha        1 2XQ      0.155000
     50 HAA1       -5.7400   -6.4000    0.7400 hc        1 2XQ      0.055700
     51 HAA2       -5.7340   -7.4210    2.2390 hc        1 2XQ      0.055700
     52 HAA3       -6.0050   -8.2000    0.6240 hc        1 2XQ      0.055700
     53 HAR1       -7.8700   -9.8550    0.6730 h1        1 2XQ      0.063700
     54 HAR2       -9.6670   -9.8830    1.1130 h1        1 2XQ      0.063700
     55 HAK        -8.7940  -11.9380    0.8300 ha        1 2XQ      0.152000
     56 HAJ        -8.7990  -14.3670    1.3310 ha        1 2XQ      0.160000
@<TRIPOS>BOND
     1    1    2 ar  
     2    1    6 ar  
     3    1   34 1   
     4    2    3 ar  
     5    2   35 1   
     6    3    4 ar  
     7    3   36 1   
     8    4    5 ar  
     9    5    6 ar  
    10    5   37 1   
    11    6    7 1   
    12    7    8 1   
    13    7   38 1   
    14    7   39 1   
    15    8    9 1   
    16    8   40 1   
    17    9   10 1   
    18    9   41 1   
    19    9   42 1   
    20   10   11 1   
    21   10   43 1   
    22   10   44 1   
    23   11   12 1   
    24   11   45 1   
    25   11   46 1   
    26   12   13 1   
    27   13   14 ar  
    28   13   19 ar  
    29   14   15 ar  
    30   14   47 1   
    31   15   16 ar  
    32   15   48 1   
    33   16   17 ar  
    34   16   49 1   
    35   17   18 1   
    36   17   19 ar  
    37   18   22 1   
    38   19   20 1   
    39   20   21 1   
    40   20   22 2   
    41   21   50 1   
    42   21   51 1   
    43   21   52 1   
    44   22   23 1   
    45   23   24 1   
    46   23   53 1   
    47   23   54 1   
    48   24   25 1   
    49   25   26 ar  
    50   25   32 ar  
    51   26   27 ar  
    52   26   55 1   
    53   27   28 ar  
    54   27   56 1   
    55   28   29 1   
    56   28   30 ar  
    57   30   31 1   
    58   30   32 ar  
    59   32   33 1   
@<TRIPOS>SUBSTRUCTURE
     1 2XQ         1 TEMP              0 ****  ****    0 ROOT
