@<TRIPOS>MOLECULE
2XQ
   57    60     1     0     0
SMALL
bcc


@<TRIPOS>ATOM
      1 CAH        -0.8320   -2.5480    2.0310 ca        1 2XQ     -0.060000
      2 CAE         0.4960   -2.9650    1.9830 ca        1 2XQ     -0.237300
      3 CAG         0.8630   -4.1300    2.6890 ca        1 2XQ      0.448200
      4 NAS        -0.0080   -4.8630    3.4110 nb        1 2XQ     -0.643000
      5 CAM        -1.2860   -4.4500    3.4530 ca        1 2XQ      0.437200
      6 CAX        -1.7520   -3.3020    2.7760 ca        1 2XQ     -0.316600
      7 CAQ        -3.1680   -2.8740    2.9030 c3        1 2XQ      0.184100
      8 NAT        -4.0390   -3.5370    1.8730 ny        1 2XQ     -0.772000
      9 CAO        -5.3060   -2.7830    1.6390 c3        1 2XQ      0.110800
     10 CAN        -6.1670   -3.4270    0.5640 c3        1 2XQ     -0.157400
     11 CAP        -7.4420   -2.6190    0.3510 c3        1 2XQ      0.137400
     12 OAU        -8.3920   -3.3910   -0.3850 os        1 2XQ     -0.316900
     13 CBD        -9.1200   -4.2720    0.4120 ca        1 2XQ      0.114100
     14 CAI       -10.2110   -3.8050    1.1520 ca        1 2XQ     -0.158000
     15 CAF       -10.9810   -4.6840    1.9280 ca        1 2XQ     -0.091000
     16 CAL       -10.6760   -6.0400    2.0220 ca        1 2XQ     -0.117000
     17 CBF        -9.5830   -6.4840    1.2820 ca        1 2XQ      0.079100
     18 OAW        -9.0780   -7.7830    1.2570 os        1 2XQ     -0.190200
     19 CBG        -8.8060   -5.6350    0.4330 ca        1 2XQ     -0.127800
     20 CAZ        -7.8110   -6.4970   -0.1870 cc        1 2XQ     -0.070400
     21 CAA        -6.8550   -6.1080   -1.2260 c3        1 2XQ     -0.047900
     22 CBE        -7.9860   -7.7510    0.3620 cd        1 2XQ     -0.034100
     23 CAR        -7.2320   -9.0160    0.2500 c3        1 2XQ      0.196600
     24 OAV        -5.8620   -8.8490    0.6610 os        1 2XQ     -0.319900
     25 CBC        -5.6860   -8.5490    1.9980 ca        1 2XQ      0.101100
     26 CAK        -6.0010   -9.4650    3.0130 ca        1 2XQ     -0.101000
     27 CAJ        -5.7340   -9.1680    4.3420 ca        1 2XQ     -0.123000
     28 CAY        -5.1470   -7.9360    4.6950 ca        1 2XQ      0.137900
     29 FAB        -4.8990   -7.6380    5.9870 f         1 2XQ     -0.103900
     30 CBA        -4.8210   -7.0040    3.6830 ca        1 2XQ      0.030900
     31 FAC        -4.2690   -5.8010    3.9840 f         1 2XQ     -0.156900
     32 CBB        -5.0830   -7.3180    2.3250 ca        1 2XQ      0.083900
     33 FAD        -4.7390   -6.4140    1.3750 f         1 2XQ     -0.151900
     34 HAH        -1.1480   -1.6350    1.5040 ha        1 2XQ      0.145000
     35 HAE         1.2500   -2.3990    1.4160 ha        1 2XQ      0.171000
     36 HAG         1.9090   -4.4960    2.6810 h4        1 2XQ      0.052100
     37 HAM        -1.9720   -5.0670    4.0660 h4        1 2XQ      0.039100
     38 HAQ1       -3.2560   -1.7570    2.7690 hx        1 2XQ      0.108200
     39 HAQ2       -3.5820   -3.1550    3.9160 hx        1 2XQ      0.108200
     40 HAT        -3.5230   -3.6130    0.9890 hn        1 2XQ      0.457800
     41 HAO1       -5.8660   -2.7430    2.6170 hx        1 2XQ      0.100700
     42 HAO2       -5.0360   -1.7310    1.3350 hx        1 2XQ      0.100700
     43 HAN1       -6.4460   -4.4800    0.8530 hc        1 2XQ      0.084200
     44 HAN2       -5.6110   -3.4910   -0.4100 hc        1 2XQ      0.084200
     45 HAP1       -7.8750   -2.2800    1.3280 h1        1 2XQ      0.067700
     46 HAP2       -7.2500   -1.7330   -0.3140 h1        1 2XQ      0.067700
     47 HAI       -10.4720   -2.7370    1.1120 ha        1 2XQ      0.153000
     48 HAF       -11.8470   -4.2870    2.4830 ha        1 2XQ      0.154000
     49 HAL       -11.2640   -6.7290    2.6430 ha        1 2XQ      0.166000
     50 HAA1       -6.9580   -6.7770   -2.1190 hc        1 2XQ      0.057033
     51 HAA2       -7.0380   -5.0530   -1.5510 hc        1 2XQ      0.057033
     52 HAA3       -5.8050   -6.1970   -0.8460 hc        1 2XQ      0.057033
     53 HAR1       -7.1230   -9.3240   -0.8280 h1        1 2XQ      0.094200
     54 HAR2       -7.7180   -9.8300    0.8510 h1        1 2XQ      0.094200
     55 HAK        -6.4620  -10.4300    2.7430 ha        1 2XQ      0.175000
     56 HAJ        -5.9760   -9.8900    5.1390 ha        1 2XQ      0.181000
     57 HAT2       -4.2610   -4.4980    2.1820 hn        1 2XQ      0.457800
@<TRIPOS>BOND
     1    1    2 ar  
     2    1    6 ar  
     3    1   34 1   
     4    2    3 ar  
     5    2   35 1   
     6    3    4 ar  
     7    3   36 1   
     8    4    5 ar  
     9    5    6 ar  
    10    5   37 1   
    11    6    7 1   
    12    7    8 1   
    13    7   38 1   
    14    7   39 1   
    15    8    9 1   
    16    8   40 1   
    17    8   57 1   
    18    9   10 1   
    19    9   41 1   
    20    9   42 1   
    21   10   11 1   
    22   10   43 1   
    23   10   44 1   
    24   11   12 1   
    25   11   45 1   
    26   11   46 1   
    27   12   13 1   
    28   13   14 ar  
    29   13   19 ar  
    30   14   15 ar  
    31   14   47 1   
    32   15   16 ar  
    33   15   48 1   
    34   16   17 ar  
    35   16   49 1   
    36   17   18 1   
    37   17   19 ar  
    38   18   22 1   
    39   19   20 1   
    40   20   21 1   
    41   20   22 2   
    42   21   50 1   
    43   21   51 1   
    44   21   52 1   
    45   22   23 1   
    46   23   24 1   
    47   23   53 1   
    48   23   54 1   
    49   24   25 1   
    50   25   26 ar  
    51   25   32 ar  
    52   26   27 ar  
    53   26   55 1   
    54   27   28 ar  
    55   27   56 1   
    56   28   29 1   
    57   28   30 ar  
    58   30   31 1   
    59   30   32 ar  
    60   32   33 1   
@<TRIPOS>SUBSTRUCTURE
     1 2XQ         1 TEMP              0 ****  ****    0 ROOT
