@<TRIPOS>MOLECULE
2XR
   21    22     1     0     0
SMALL
bcc


@<TRIPOS>ATOM
      1 CAH         0.1280   -0.1530    0.4280 c3        1 2XR      0.058200
      2 CAI         1.6110   -0.1720    0.2400 c2        1 2XR      0.216900
      3 OAJ         2.2690   -0.3540    1.4200 oh        1 2XR     -0.485100
      4 CAN         2.1930   -0.0530   -0.9760 ce        1 2XR     -0.240900
      5 CAO         3.5980   -0.0390   -1.3960 ca        1 2XR     -0.070800
      6 CAP         4.8150   -0.1410   -0.7480 ca        1 2XR     -0.108000
      7 CAQ         5.9990   -0.0780   -1.4980 ca        1 2XR     -0.137000
      8 CAR         5.9710    0.0850   -2.8790 ca        1 2XR     -0.115000
      9 CAS         4.7570    0.1910   -3.5700 ca        1 2XR     -0.132000
     10 CAK         3.5840    0.1290   -2.8330 ca        1 2XR      0.056600
     11 NAL         2.2230    0.2030   -3.2550 nh        1 2XR     -0.485400
     12 CAM         1.3670    0.1010   -2.2220 cg        1 2XR     -0.036300
     13 H1         -0.1860   -0.9750    1.1180 h1        1 2XR      0.106200
     14 H2         -0.3820   -0.2410   -0.5660 h1        1 2XR      0.106200
     15 H4          3.2240   -0.3100    1.2640 ho        1 2XR      0.435000
     16 H5          4.8890   -0.2710    0.3400 ha        1 2XR      0.123000
     17 H6          6.9650   -0.1590   -0.9780 ha        1 2XR      0.135000
     18 H7          6.9140    0.1320   -3.4440 ha        1 2XR      0.136000
     19 H8          4.7450    0.3190   -4.6610 ha        1 2XR      0.139000
     20 H9          1.9710    0.3170   -4.2030 hn        1 2XR      0.458800
     21 CL1        -0.4050    1.3520    1.1520 cl        1 2XR     -0.160400
@<TRIPOS>BOND
     1    1    2 1   
     2    1   13 1   
     3    1   14 1   
     4    1   21 1   
     5    2    3 1   
     6    2    4 2   
     7    3   15 1   
     8    4    5 1   
     9    4   12 1   
    10    5    6 ar  
    11    5   10 ar  
    12    6    7 ar  
    13    6   16 1   
    14    7    8 ar  
    15    7   17 1   
    16    8    9 ar  
    17    8   18 1   
    18    9   10 ar  
    19    9   19 1   
    20   10   11 1   
    21   11   12 3   
    22   11   20 1   
@<TRIPOS>SUBSTRUCTURE
     1 2XR         1 TEMP              0 ****  ****    0 ROOT
