@<TRIPOS>MOLECULE
2XS
   50    55     1     0     0
SMALL
bcc


@<TRIPOS>ATOM
      1 CAF        -0.0950   -0.2070   -0.0310 ca        1 2XS      0.361600
      2 NAG         1.2070   -0.5990   -0.2860 nb        1 2XS     -0.679000
      3 CAH         1.9680   -0.9560    0.7310 ca        1 2XS      0.411200
      4 CAI         1.5350   -0.9670    2.0940 ca        1 2XS     -0.246300
      5 CAJ         0.2480   -0.5830    2.3660 ca        1 2XS     -0.082000
      6 CAA        -0.6130   -0.1860    1.2990 ca        1 2XS     -0.121300
      7 CAB        -1.9460    0.2200    1.5460 ca        1 2XS     -0.148000
      8 CAC        -2.7500    0.5960    0.4990 ca        1 2XS     -0.093000
      9 CAD        -2.2740    0.5840   -0.8260 ca        1 2XS     -0.167000
     10 CAE        -0.9710    0.1970   -1.1270 ca        1 2XS      0.035300
     11 NAK        -0.4690    0.1630   -2.4340 ns        1 2XS     -0.457100
     12 CAL        -1.0460    0.7220   -3.5680 c         1 2XS      0.680700
     13 OAM        -2.1650    1.2680   -3.5680 o         1 2XS     -0.589100
     14 CAN        -0.2530    0.6010   -4.8270 ca        1 2XS     -0.158600
     15 CAS        -0.9370    0.3170   -6.0140 ca        1 2XS     -0.077000
     16 CAO        -0.2520    0.2120   -7.2190 ca        1 2XS     -0.146500
     17 CAR         1.1300    0.7970   -4.8600 ca        1 2XS     -0.077000
     18 CAQ         1.8290    0.6940   -6.0580 ca        1 2XS     -0.146500
     19 CAP         1.1490    0.3960   -7.2600 ca        1 2XS      0.075600
     20 NAT         1.8560    0.2850   -8.4780 n         1 2XS     -0.428600
     21 CAW         3.0470    1.0010   -8.7850 c         1 2XS      0.713500
     22 OBE         3.6060    1.7970   -8.0270 o         1 2XS     -0.571000
     23 CAV         3.5280    0.6160  -10.1780 c3        1 2XS     -0.146700
     24 CBB         3.4410    1.7780  -11.2000 c3        1 2XS     -0.034500
     25 CBC         1.9120    1.7780  -11.5210 c3        1 2XS     -0.091400
     26 CBA         3.9730    1.1820  -12.4990 c2        1 2XS     -0.173200
     27 CAZ         3.0570    0.2940  -12.9520 c2        1 2XS     -0.173200
     28 CAY         1.8940    0.2800  -11.9640 c3        1 2XS     -0.034500
     29 CAU         2.4700   -0.4080  -10.7000 c3        1 2XS     -0.146700
     30 CAX         1.4560   -0.5350   -9.5700 c         1 2XS      0.713500
     31 OBD         0.4520   -1.2510   -9.5850 o         1 2XS     -0.571000
     32 H1          3.0020   -1.2610    0.4830 h4        1 2XS      0.021100
     33 H2          2.2320   -1.2790    2.8820 ha        1 2XS      0.145000
     34 H3         -0.1450   -0.5710    3.3940 ha        1 2XS      0.140000
     35 H4         -2.3170    0.2290    2.5810 ha        1 2XS      0.135000
     36 H5         -3.7890    0.9150    0.6780 ha        1 2XS      0.138000
     37 H6         -2.9690    0.8960   -1.6250 ha        1 2XS      0.178000
     38 H7          0.4320   -0.2510   -2.5530 hn        1 2XS      0.340500
     39 H8         -2.0310    0.1870   -5.9900 ha        1 2XS      0.151500
     40 H9         -0.8140   -0.0280   -8.1360 ha        1 2XS      0.162500
     41 H10         1.6860    1.0510   -3.9430 ha        1 2XS      0.151500
     42 H11         2.9180    0.8680   -6.0590 ha        1 2XS      0.162500
     43 H12         4.5590    0.1960  -10.1140 hc        1 2XS      0.104200
     44 H13         3.8890    2.7300  -10.8640 hc        1 2XS      0.098200
     45 H14         1.2710    1.9910  -10.6400 hc        1 2XS      0.065700
     46 H15         1.6500    2.4710  -12.3500 hc        1 2XS      0.065700
     47 H16         4.9330    1.4640  -12.9230 ha        1 2XS      0.153000
     48 H18         3.0780   -0.3340  -13.8400 ha        1 2XS      0.153000
     49 H20         0.9350   -0.1320  -12.3240 hc        1 2XS      0.098200
     50 H21         2.8990   -1.4110  -10.9320 hc        1 2XS      0.104200
@<TRIPOS>BOND
     1    1    2 ar  
     2    1    6 ar  
     3    1   10 ar  
     4    2    3 ar  
     5    3    4 ar  
     6    3   32 1   
     7    4    5 ar  
     8    4   33 1   
     9    5    6 ar  
    10    5   34 1   
    11    6    7 ar  
    12    7    8 ar  
    13    7   35 1   
    14    8    9 ar  
    15    8   36 1   
    16    9   10 ar  
    17    9   37 1   
    18   10   11 1   
    19   11   12 1   
    20   11   38 1   
    21   12   13 2   
    22   12   14 1   
    23   14   15 ar  
    24   14   17 ar  
    25   15   16 ar  
    26   15   39 1   
    27   16   19 ar  
    28   16   40 1   
    29   17   18 ar  
    30   17   41 1   
    31   18   19 ar  
    32   18   42 1   
    33   19   20 1   
    34   20   21 1   
    35   20   30 1   
    36   21   22 2   
    37   21   23 1   
    38   23   24 1   
    39   23   29 1   
    40   23   43 1   
    41   24   25 1   
    42   24   26 1   
    43   24   44 1   
    44   25   28 1   
    45   25   45 1   
    46   25   46 1   
    47   26   27 2   
    48   26   47 1   
    49   27   28 1   
    50   27   48 1   
    51   28   29 1   
    52   28   49 1   
    53   29   30 1   
    54   29   50 1   
    55   30   31 2   
@<TRIPOS>SUBSTRUCTURE
     1 2XS         1 TEMP              0 ****  ****    0 ROOT
