@<TRIPOS>MOLECULE
2XX
   20    20     1     0     0
SMALL
bcc


@<TRIPOS>ATOM
      1 OAC        -0.0040   -0.2980   -0.1030 o         1 2XX     -0.517100
      2 CAH         1.2170   -0.1800   -0.0390 c         1 2XX      0.539300
      3 CAI         2.0690   -0.1880    1.1670 ce        1 2XX     -0.138100
      4 OAD         1.6300   -0.3260    2.4550 oh        1 2XX     -0.469100
      5 CAG         3.3750   -0.0280    0.8000 c2        1 2XX      0.102900
      6 CAB         4.6150    0.0330    1.5810 c3        1 2XX     -0.044900
      7 OAF         3.5190    0.0910   -0.5850 os        1 2XX     -0.319900
      8 CAJ         2.1970   -0.0020   -1.1980 c3        1 2XX      0.028100
      9 CAE         1.9250    1.2520   -2.0080 c3        1 2XX     -0.077400
     10 CAA         2.7270    1.2690   -3.2830 c3        1 2XX     -0.095100
     11 H1          0.6660   -0.4350    2.3980 ho        1 2XX      0.433000
     12 H2          5.1240    1.0160    1.4180 hc        1 2XX      0.068033
     13 H3          5.3120   -0.7810    1.2610 hc        1 2XX      0.068033
     14 H4          4.3770   -0.0860    2.6670 hc        1 2XX      0.068033
     15 H5          2.2220   -0.9200   -1.8440 h1        1 2XX      0.101700
     16 H6          2.1760    2.1540   -1.3900 hc        1 2XX      0.063200
     17 H7          0.8260    1.2830   -2.2370 hc        1 2XX      0.063200
     18 H8          2.5470    2.2230   -3.8350 hc        1 2XX      0.042033
     19 H9          2.4380    0.4170   -3.9450 hc        1 2XX      0.042033
     20 H10         3.8180    1.1870   -3.0570 hc        1 2XX      0.042033
@<TRIPOS>BOND
     1    1    2 2   
     2    2    3 1   
     3    2    8 1   
     4    3    4 1   
     5    3    5 2   
     6    4   11 1   
     7    5    6 1   
     8    5    7 1   
     9    6   12 1   
    10    6   13 1   
    11    6   14 1   
    12    7    8 1   
    13    8    9 1   
    14    8   15 1   
    15    9   10 1   
    16    9   16 1   
    17    9   17 1   
    18   10   18 1   
    19   10   19 1   
    20   10   20 1   
@<TRIPOS>SUBSTRUCTURE
     1 2XX         1 TEMP              0 ****  ****    0 ROOT
