@<TRIPOS>MOLECULE
2XX
   20    20     1     0     0
SMALL
bcc


@<TRIPOS>ATOM
      1 OAC         0.0950   -2.3850    0.1730 o         1 2XX     -0.484100
      2 CAH        -0.0800   -1.1740    0.1740 c         1 2XX      0.571300
      3 CAI        -1.3220   -0.3970   -0.0530 ce        1 2XX     -0.111100
      4 OAD        -2.4970   -1.0450   -0.2980 oh        1 2XX     -0.448100
      5 CAG        -1.0470    0.9360    0.0420 c2        1 2XX      0.032900
      6 CAB        -1.8890    2.1300   -0.0910 c3        1 2XX     -0.043900
      7 OAF         0.3010    1.1820    0.3180 os        1 2XX     -0.315900
      8 CAJ         0.9840   -0.1020    0.4330 c3        1 2XX      0.021100
      9 CAE         2.1230   -0.1600   -0.5670 c3        1 2XX     -0.077400
     10 CAA         3.2780    0.7090   -0.1400 c3        1 2XX     -0.094100
     11 H1         -3.1570   -0.3670   -0.5120 ho        1 2XX      0.412000
     12 H2         -2.1280    2.5430    0.9220 hc        1 2XX      0.062700
     13 H3         -1.3550    2.9220   -0.6740 hc        1 2XX      0.062700
     14 H4         -2.8440    1.8720   -0.6120 hc        1 2XX      0.062700
     15 H5          1.3540   -0.1600    1.4920 h1        1 2XX      0.099700
     16 H6          2.4510   -1.2300   -0.6540 hc        1 2XX      0.063200
     17 H7          1.7510    0.1710   -1.5720 hc        1 2XX      0.063200
     18 H8          2.9400    1.7650   -0.0040 hc        1 2XX      0.041033
     19 H9          3.7080    0.3500    0.8260 hc        1 2XX      0.041033
     20 H10         4.0810    0.6860   -0.9150 hc        1 2XX      0.041033
@<TRIPOS>BOND
     1    1    2 2   
     2    2    3 1   
     3    2    8 1   
     4    3    4 1   
     5    3    5 2   
     6    4   11 1   
     7    5    6 1   
     8    5    7 1   
     9    6   12 1   
    10    6   13 1   
    11    6   14 1   
    12    7    8 1   
    13    8    9 1   
    14    8   15 1   
    15    9   10 1   
    16    9   16 1   
    17    9   17 1   
    18   10   18 1   
    19   10   19 1   
    20   10   20 1   
@<TRIPOS>SUBSTRUCTURE
     1 2XX         1 TEMP              0 ****  ****    0 ROOT
