@<TRIPOS>MOLECULE
2XX
   20    18     1     0     0
SMALL
bcc


@<TRIPOS>ATOM
      1 OAC        -2.4620   -0.3630    0.3780 o         1 2XX     -0.278000
      2 CAH        -1.2700   -0.5910    0.4350 c1        1 2XX      0.231000
      3 CAI        -0.4840   -0.4520    1.5300 c2        1 2XX     -0.163000
      4 OAD        -1.0110   -0.4560    2.8340 oh        1 2XX     -0.224000
      5 CAG         0.7730   -0.4190    1.3040 c1        1 2XX      0.063000
      6 CAB         1.6890    0.3470    2.2340 c3        1 2XX     -0.167000
      7 OAF         1.1110   -0.5780   -0.0060 o         1 2XX     -0.204000
      8 CAJ        -0.2590   -0.5310   -0.7700 c2        1 2XX     -0.033000
      9 CAE        -0.4670    0.5980   -1.4930 c3        1 2XX     -0.156000
     10 CAA        -0.1210    0.3390   -2.9430 c3        1 2XX     -0.213000
     11 H1         -1.3980   -1.2400    2.9960 ho        1 2XX      0.232000
     12 H2          1.2710    1.2000    2.4740 hc        1 2XX      0.107333
     13 H3          1.8460   -0.1800    3.0450 hc        1 2XX      0.107333
     14 H4          2.5430    0.5160    1.7840 hc        1 2XX      0.107333
     15 H5         -0.3130   -1.2210   -1.4610 h4        1 2XX      0.141000
     16 H6          0.0990    1.3180   -1.1460 hc        1 2XX      0.102500
     17 H7         -1.4080    0.8620   -1.4240 hc        1 2XX      0.102500
     18 H8         -0.7880   -0.2630   -3.3360 hc        1 2XX      0.081333
     19 H9         -0.1170    1.1870   -3.4350 hc        1 2XX      0.081333
     20 H10         0.7660   -0.0740   -2.9980 hc        1 2XX      0.081333
@<TRIPOS>BOND
     1    1    2 1   
     2    2    3 1   
     3    3    4 1   
     4    3    5 1   
     5    4   11 1   
     6    5    6 1   
     7    6   12 1   
     8    6   13 1   
     9    6   14 1   
    10    7    8 1   
    11    8    9 1   
    12    8   15 1   
    13    9   10 1   
    14    9   16 1   
    15    9   17 1   
    16   10   18 1   
    17   10   19 1   
    18   10   20 1   
@<TRIPOS>SUBSTRUCTURE
     1 2XX         1 TEMP              0 ****  ****    0 ROOT
