@<TRIPOS>MOLECULE
2XX
   20    20     1     0     0
SMALL
bcc


@<TRIPOS>ATOM
      1 OAC        -0.0060   -0.3110   -0.0940 o         1 2XX     -0.517100
      2 CAH         1.2140   -0.1890   -0.0320 c         1 2XX      0.539300
      3 CAI         2.0690   -0.2010    1.1720 ce        1 2XX     -0.138100
      4 OAD         1.6330   -0.3460    2.4600 oh        1 2XX     -0.469100
      5 CAG         3.3740   -0.0360    0.8030 c2        1 2XX      0.102900
      6 CAB         4.6150    0.0250    1.5820 c3        1 2XX     -0.044900
      7 OAF         3.5150    0.0900   -0.5810 os        1 2XX     -0.319900
      8 CAJ         2.1920   -0.0030   -1.1920 c3        1 2XX      0.028100
      9 CAE         1.9150    1.2530   -1.9950 c3        1 2XX     -0.077400
     10 CAA         2.7150    1.2790   -3.2720 c3        1 2XX     -0.095100
     11 H1          0.6690   -0.4580    2.4050 ho        1 2XX      0.433000
     12 H2          5.1190    1.0120    1.4280 hc        1 2XX      0.068033
     13 H3          4.3800   -0.1060    2.6680 hc        1 2XX      0.068033
     14 H4          5.3170   -0.7820    1.2530 hc        1 2XX      0.068033
     15 H5          2.2180   -0.9180   -1.8430 h1        1 2XX      0.101700
     16 H6          2.1650    2.1530   -1.3740 hc        1 2XX      0.063200
     17 H7          0.8160    1.2830   -2.2220 hc        1 2XX      0.063200
     18 H8          2.4270    0.4290   -3.9380 hc        1 2XX      0.042033
     19 H9          3.8060    1.1980   -3.0480 hc        1 2XX      0.042033
     20 H10         2.5310    2.2350   -3.8200 hc        1 2XX      0.042033
@<TRIPOS>BOND
     1    1    2 2   
     2    2    3 1   
     3    2    8 1   
     4    3    4 1   
     5    3    5 2   
     6    4   11 1   
     7    5    6 1   
     8    5    7 1   
     9    6   12 1   
    10    6   13 1   
    11    6   14 1   
    12    7    8 1   
    13    8    9 1   
    14    8   15 1   
    15    9   10 1   
    16    9   16 1   
    17    9   17 1   
    18   10   18 1   
    19   10   19 1   
    20   10   20 1   
@<TRIPOS>SUBSTRUCTURE
     1 2XX         1 TEMP              0 ****  ****    0 ROOT
