@<TRIPOS>MOLECULE
2XY
   32    33     1     0     0
SMALL
bcc


@<TRIPOS>ATOM
      1 C4         -0.0980   -0.1900    0.0510 c3        1 2XY      0.106800
      2 C1          0.3150   -0.7880    2.3600 c3        1 2XY      0.106800
      3 C2          1.8180   -0.7480    2.0660 c3        1 2XY      0.127900
      4 O2         -5.9390   -1.2510    1.3570 o         1 2XY     -0.215500
      5 C3          1.4160   -0.1600   -0.1810 c3        1 2XY      0.127900
      6 O3         -4.2970   -0.0350    0.8840 o         1 2XY     -0.215500
      7 C5         -2.5240   -2.3350    0.9780 ca        1 2XY      0.270600
      8 O1          2.1210    0.1570    1.0120 os        1 2XY     -0.408600
      9 N1         -0.4560   -1.1320    1.1400 n3        1 2XY     -0.467400
     10 N2         -1.8140   -1.2030    1.3990 nu        1 2XY     -0.505400
     11 C6         -1.8600   -3.5740    0.7350 ca        1 2XY     -0.183000
     12 C7         -2.5610   -4.7360    0.4910 ca        1 2XY     -0.019000
     13 C8         -3.9640   -4.7300    0.4770 ca        1 2XY     -0.227300
     14 C9         -4.7220   -6.0280    0.2410 c3        1 2XY      0.697200
     15 F2         -5.9660   -5.8700   -0.3190 f         1 2XY     -0.233967
     16 F3         -4.9550   -6.7580    1.3820 f         1 2XY     -0.233967
     17 F1         -4.0830   -6.9100   -0.5950 f         1 2XY     -0.233967
     18 C10        -4.6530   -3.5470    0.6880 ca        1 2XY      0.010000
     19 C11        -3.9520   -2.3450    0.9130 ca        1 2XY     -0.262200
     20 N3         -4.7790   -1.1250    1.0710 no        1 2XY      0.324200
     21 H4         -0.4480    0.8600    0.2690 h1        1 2XY      0.058950
     22 H4A        -0.5950   -0.5380   -0.8970 h1        1 2XY      0.058950
     23 H1          0.0040    0.2080    2.7870 h1        1 2XY      0.058950
     24 H1A         0.1220   -1.5800    3.1360 h1        1 2XY      0.058950
     25 H2          2.2030   -1.7700    1.8100 h1        1 2XY      0.061200
     26 H2A         2.3670   -0.3390    2.9540 h1        1 2XY      0.061200
     27 H3          1.6760    0.6690   -0.8910 h1        1 2XY      0.061200
     28 H3A         1.7770   -1.1430   -0.5850 h1        1 2XY      0.061200
     29 HN2        -2.2990   -0.3210    1.2950 hn        1 2XY      0.436800
     30 H6         -0.7580   -3.6130    0.7480 ha        1 2XY      0.173000
     31 H7         -2.0220   -5.6800    0.3030 ha        1 2XY      0.160000
     32 H10        -5.7610   -3.5430    0.6710 ha        1 2XY      0.185000
@<TRIPOS>BOND
     1    1    5 1   
     2    1    9 1   
     3    1   21 1   
     4    1   22 1   
     5    2    3 1   
     6    2    9 1   
     7    2   23 1   
     8    2   24 1   
     9    3    8 1   
    10    3   25 1   
    11    3   26 1   
    12    4   20 1   
    13    5    8 1   
    14    5   27 1   
    15    5   28 1   
    16    6   20 1   
    17    7   10 1   
    18    7   11 ar  
    19    7   19 ar  
    20    9   10 1   
    21   10   29 1   
    22   11   12 ar  
    23   11   30 1   
    24   12   13 ar  
    25   12   31 1   
    26   13   14 1   
    27   13   18 ar  
    28   14   15 1   
    29   14   16 1   
    30   14   17 1   
    31   18   19 ar  
    32   18   32 1   
    33   19   20 1   
@<TRIPOS>SUBSTRUCTURE
     1 2XY         1 TEMP              0 ****  ****    0 ROOT
