@<TRIPOS>MOLECULE
2XY
   32    33     1     0     0
SMALL
bcc


@<TRIPOS>ATOM
      1 C4         15.7090  -40.8510   11.2940 c3        1 2XY      0.106800
      2 C1         15.5570  -43.2670   11.2980 c3        1 2XY      0.106800
      3 C2         16.9470  -43.3200   10.6550 c3        1 2XY      0.127900
      4 O2          9.8920  -41.0000   13.0540 o         1 2XY     -0.215500
      5 C3         17.0970  -40.9680   10.6570 c3        1 2XY      0.127900
      6 O3         11.9420  -40.6550   13.3270 o         1 2XY     -0.215500
      7 C5         12.5000  -41.6540   10.6560 ca        1 2XY      0.270600
      8 O1         17.7320  -42.1890   11.0100 os        1 2XY     -0.408600
      9 N1         14.8550  -42.0110   10.9390 n3        1 2XY     -0.467400
     10 N2         13.5840  -41.9640   11.4870 nh        1 2XY     -0.505400
     11 C6         12.5740  -41.8470    9.2450 ca        1 2XY     -0.183000
     12 C7         11.4650  -41.7140    8.4370 ca        1 2XY     -0.019000
     13 C8         10.2190  -41.3800    8.9890 ca        1 2XY     -0.227300
     14 C9          8.9990  -41.2710    8.0870 c3        1 2XY      0.697200
     15 F2          8.0210  -40.4230    8.5460 f         1 2XY     -0.233967
     16 F3          8.3440  -42.4620    7.8810 f         1 2XY     -0.233967
     17 F1          9.2730  -40.8170    6.8190 f         1 2XY     -0.233967
     18 C10        10.1020  -41.1630   10.3510 ca        1 2XY      0.010000
     19 C11        11.2300  -41.2710   11.1890 ca        1 2XY     -0.262200
     20 N3         11.0120  -40.9630   12.6230 no        1 2XY      0.324200
     21 H4         15.8350  -40.7460   12.4110 h1        1 2XY      0.058950
     22 H4A        15.2170  -39.9170   10.9050 h1        1 2XY      0.058950
     23 H1         14.9520  -44.1340   10.9150 h1        1 2XY      0.058950
     24 H1A        15.6720  -43.3810   12.4140 h1        1 2XY      0.058950
     25 H2         17.5180  -44.1970   11.0600 h1        1 2XY      0.061200
     26 H2A        16.8690  -43.3920    9.5380 h1        1 2XY      0.061200
     27 H3         17.0300  -40.8850    9.5400 h1        1 2XY      0.061200
     28 H3A        17.7710  -40.1700   11.0650 h1        1 2XY      0.061200
     29 HN2        13.5520  -41.5610   12.4150 hn        1 2XY      0.436800
     30 H6         13.5380  -42.1180    8.7820 ha        1 2XY      0.173000
     31 H7         11.5510  -41.8660    7.3470 ha        1 2XY      0.160000
     32 H10         9.1180  -40.8950   10.7850 ha        1 2XY      0.185000
@<TRIPOS>BOND
     1    1    5 1   
     2    1    9 1   
     3    1   21 1   
     4    1   22 1   
     5    2    3 1   
     6    2    9 1   
     7    2   23 1   
     8    2   24 1   
     9    3    8 1   
    10    3   25 1   
    11    3   26 1   
    12    4   20 1   
    13    5    8 1   
    14    5   27 1   
    15    5   28 1   
    16    6   20 1   
    17    7   10 1   
    18    7   11 ar  
    19    7   19 ar  
    20    9   10 1   
    21   10   29 1   
    22   11   12 ar  
    23   11   30 1   
    24   12   13 ar  
    25   12   31 1   
    26   13   14 1   
    27   13   18 ar  
    28   14   15 1   
    29   14   16 1   
    30   14   17 1   
    31   18   19 ar  
    32   18   32 1   
    33   19   20 1   
@<TRIPOS>SUBSTRUCTURE
     1 2XY         1 TEMP              0 ****  ****    0 ROOT
