@<TRIPOS>MOLECULE
2XY
   32    30     1     0     0
SMALL
bcc


@<TRIPOS>ATOM
      1 C4          0.8990   -2.5630    0.7360 c3        1 2XY     -0.136500
      2 C1          1.2490   -0.9660    2.4280 c3        1 2XY     -0.136500
      3 C2          2.7450   -1.1090    2.2530 c3        1 2XY     -0.056000
      4 O2         -2.3480    0.7550    2.3610 o         1 2XY     -0.478700
      5 C3          2.3950   -2.7060    0.5610 c3        1 2XY     -0.056000
      6 O3         -3.1270   -0.8530    1.0070 o         1 2XY     -0.478700
      7 C5         -0.3520    0.3500   -0.2910 c1        1 2XY      0.142000
      8 O1          3.1080   -2.3730    1.7350 os        1 2XY     -0.265000
      9 N1          0.5350   -1.2990    1.2540 n3        1 2XY     -0.149000
     10 N2          0.7510   -0.3280    0.2930 n2        1 2XY     -0.201000
     11 C6          0.3250    0.9180   -1.5200 c1        1 2XY     -0.200000
     12 C7         -0.4190    1.8790   -2.4170 c1        1 2XY     -0.026000
     13 C8         -1.8550    2.2440   -2.1080 c1        1 2XY     -0.200000
     14 C9         -2.6140    3.1690   -3.0320 c2        1 2XY      0.474000
     15 F2         -3.3940    3.9810   -2.3080 f         1 2XY     -0.162000
     16 F3         -3.3750    2.4440   -3.8620 f         1 2XY     -0.162000
     17 F1         -1.7480    3.9000   -3.7440 f         1 2XY     -0.162000
     18 C10        -2.5340    1.6730   -0.8820 c2        1 2XY     -0.011000
     19 C11        -1.7880    0.7150    0.0170 c2        1 2XY     -0.138000
     20 N3         -2.4370    0.1470    1.1410 no        1 2XY      0.851400
     21 H4          0.5830   -3.2590    1.3480 h1        1 2XY      0.125000
     22 H4A         0.4660   -2.6860   -0.1330 h1        1 2XY      0.125000
     23 H1          1.0450   -0.0390    2.6700 h1        1 2XY      0.125000
     24 H1A         0.9570   -1.5550    3.1540 h1        1 2XY      0.125000
     25 H2          3.1780   -0.9870    3.1220 h1        1 2XY      0.095750
     26 H2A         3.0610   -0.4130    1.6400 h1        1 2XY      0.095750
     27 H3          2.5990   -3.6330    0.3190 h1        1 2XY      0.095750
     28 H3A         2.6870   -2.1160   -0.1650 h1        1 2XY      0.095750
     29 HN2         1.6000   -0.1250    0.0330 hn        1 2XY      0.180000
     30 H6          1.2510    0.6820   -1.7190 ha        1 2XY      0.151000
     31 H7          0.0170    2.2450   -3.2080 ha        1 2XY      0.160000
     32 H10        -3.4600    1.9090   -0.6830 ha        1 2XY      0.178000
@<TRIPOS>BOND
     1    1    5 1   
     2    1    9 1   
     3    1   21 1   
     4    1   22 1   
     5    2    3 1   
     6    2    9 1   
     7    2   23 1   
     8    2   24 1   
     9    3    8 1   
    10    3   25 1   
    11    3   26 1   
    12    4   20 2   
    13    5    8 1   
    14    5   27 1   
    15    5   28 1   
    16    6   20 2   
    17    7   11 1   
    18    7   19 1   
    19    9   10 1   
    20   10   29 1   
    21   11   30 1   
    22   12   13 1   
    23   12   31 1   
    24   13   18 1   
    25   14   15 1   
    26   14   16 1   
    27   14   17 1   
    28   18   19 1   
    29   18   32 1   
    30   19   20 1   
@<TRIPOS>SUBSTRUCTURE
     1 2XY         1 TEMP              0 ****  ****    0 ROOT
