@<TRIPOS>MOLECULE
2XY
   32    33     1     0     0
SMALL
bcc


@<TRIPOS>ATOM
      1 C4         -0.0970   -0.1890    0.0550 c3        1 2XY      0.106800
      2 C1          0.3140   -0.7910    2.3640 c3        1 2XY      0.106800
      3 C2          1.8170   -0.7500    2.0710 c3        1 2XY      0.127900
      4 O2         -5.9390   -1.2520    1.3580 o         1 2XY     -0.215500
      5 C3          1.4170   -0.1590   -0.1750 c3        1 2XY      0.127900
      6 O3         -4.2970   -0.0350    0.8870 o         1 2XY     -0.215500
      7 C5         -2.5240   -2.3350    0.9780 ca        1 2XY      0.270600
      8 O1          2.1210    0.1560    1.0180 os        1 2XY     -0.408600
      9 N1         -0.4560   -1.1330    1.1430 n3        1 2XY     -0.467400
     10 N2         -1.8150   -1.2040    1.4010 nh        1 2XY     -0.505400
     11 C6         -1.8600   -3.5730    0.7320 ca        1 2XY     -0.183000
     12 C7         -2.5610   -4.7350    0.4850 ca        1 2XY     -0.019000
     13 C8         -3.9640   -4.7290    0.4710 ca        1 2XY     -0.227300
     14 C9         -4.7220   -6.0260    0.2320 c3        1 2XY      0.697200
     15 F2         -5.9660   -5.8680   -0.3280 f         1 2XY     -0.233967
     16 F3         -4.9550   -6.7590    1.3700 f         1 2XY     -0.233967
     17 F1         -4.0820   -6.9070   -0.6070 f         1 2XY     -0.233967
     18 C10        -4.6530   -3.5470    0.6840 ca        1 2XY      0.010000
     19 C11        -3.9520   -2.3450    0.9120 ca        1 2XY     -0.262200
     20 N3         -4.7800   -1.1250    1.0720 no        1 2XY      0.324200
     21 H4         -0.4480    0.8610    0.2760 h1        1 2XY      0.058950
     22 H4A        -0.5940   -0.5360   -0.8930 h1        1 2XY      0.058950
     23 H1          0.1210   -1.5840    3.1380 h1        1 2XY      0.058950
     24 H1A         0.0030    0.2050    2.7920 h1        1 2XY      0.058950
     25 H2          2.3660   -0.3430    2.9610 h1        1 2XY      0.061200
     26 H2A         2.2030   -1.7720    1.8130 h1        1 2XY      0.061200
     27 H3          1.6770    0.6710   -0.8840 h1        1 2XY      0.061200
     28 H3A         1.7780   -1.1410   -0.5810 h1        1 2XY      0.061200
     29 HN2        -2.2990   -0.3220    1.2980 hn        1 2XY      0.436800
     30 H6         -0.7580   -3.6120    0.7450 ha        1 2XY      0.173000
     31 H7         -2.0210   -5.6790    0.2950 ha        1 2XY      0.160000
     32 H10        -5.7610   -3.5430    0.6660 ha        1 2XY      0.185000
@<TRIPOS>BOND
     1    1    5 1   
     2    1    9 1   
     3    1   21 1   
     4    1   22 1   
     5    2    3 1   
     6    2    9 1   
     7    2   23 1   
     8    2   24 1   
     9    3    8 1   
    10    3   25 1   
    11    3   26 1   
    12    4   20 1   
    13    5    8 1   
    14    5   27 1   
    15    5   28 1   
    16    6   20 1   
    17    7   10 1   
    18    7   11 ar  
    19    7   19 ar  
    20    9   10 1   
    21   10   29 1   
    22   11   12 ar  
    23   11   30 1   
    24   12   13 ar  
    25   12   31 1   
    26   13   14 1   
    27   13   18 ar  
    28   14   15 1   
    29   14   16 1   
    30   14   17 1   
    31   18   19 ar  
    32   18   32 1   
    33   19   20 1   
@<TRIPOS>SUBSTRUCTURE
     1 2XY         1 TEMP              0 ****  ****    0 ROOT
