@<TRIPOS>MOLECULE
2XY
   32    33     1     0     0
SMALL
bcc


@<TRIPOS>ATOM
      1 C4         -0.0950   -0.1930    0.0500 c3        1 2XY      0.106800
      2 C1          0.3160   -0.7900    2.3600 c3        1 2XY      0.106800
      3 C2          1.8190   -0.7520    2.0660 c3        1 2XY      0.127900
      4 O2         -5.9380   -1.2450    1.3520 o         1 2XY     -0.215500
      5 C3          1.4190   -0.1650   -0.1810 c3        1 2XY      0.127900
      6 O3         -4.2940   -0.0320    0.8790 o         1 2XY     -0.215500
      7 C5         -2.5240   -2.3340    0.9780 ca        1 2XY      0.270600
      8 O1          2.1240    0.1520    1.0120 os        1 2XY     -0.408600
      9 N1         -0.4550   -1.1330    1.1400 n3        1 2XY     -0.467400
     10 N2         -1.8130   -1.2030    1.3980 nh        1 2XY     -0.505400
     11 C6         -1.8610   -3.5740    0.7370 ca        1 2XY     -0.183000
     12 C7         -2.5640   -4.7350    0.4940 ca        1 2XY     -0.019000
     13 C8         -3.9670   -4.7270    0.4780 ca        1 2XY     -0.227300
     14 C9         -4.7260   -6.0240    0.2430 c3        1 2XY      0.697200
     15 F2         -5.9690   -5.8660   -0.3210 f         1 2XY     -0.233967
     16 F3         -4.9640   -6.7520    1.3840 f         1 2XY     -0.233967
     17 F1         -4.0870   -6.9100   -0.5910 f         1 2XY     -0.233967
     18 C10        -4.6550   -3.5440    0.6870 ca        1 2XY      0.010000
     19 C11        -3.9520   -2.3420    0.9110 ca        1 2XY     -0.262200
     20 N3         -4.7780   -1.1210    1.0670 no        1 2XY      0.324200
     21 H4         -0.5930   -0.5410   -0.8970 h1        1 2XY      0.058950
     22 H4A        -0.4440    0.8580    0.2680 h1        1 2XY      0.058950
     23 H1          0.1220   -1.5810    3.1360 h1        1 2XY      0.058950
     24 H1A         0.0060    0.2070    2.7860 h1        1 2XY      0.058950
     25 H2          2.3680   -0.3430    2.9550 h1        1 2XY      0.061200
     26 H2A         2.2030   -1.7740    1.8110 h1        1 2XY      0.061200
     27 H3          1.7790   -1.1480   -0.5840 h1        1 2XY      0.061200
     28 H3A         1.6800    0.6630   -0.8920 h1        1 2XY      0.061200
     29 HN2        -2.2970   -0.3200    1.2930 hn        1 2XY      0.436800
     30 H6         -0.7600   -3.6140    0.7520 ha        1 2XY      0.173000
     31 H7         -2.0260   -5.6810    0.3070 ha        1 2XY      0.160000
     32 H10        -5.7620   -3.5380    0.6680 ha        1 2XY      0.185000
@<TRIPOS>BOND
     1    1    5 1   
     2    1    9 1   
     3    1   21 1   
     4    1   22 1   
     5    2    3 1   
     6    2    9 1   
     7    2   23 1   
     8    2   24 1   
     9    3    8 1   
    10    3   25 1   
    11    3   26 1   
    12    4   20 1   
    13    5    8 1   
    14    5   27 1   
    15    5   28 1   
    16    6   20 1   
    17    7   10 1   
    18    7   11 ar  
    19    7   19 ar  
    20    9   10 1   
    21   10   29 1   
    22   11   12 ar  
    23   11   30 1   
    24   12   13 ar  
    25   12   31 1   
    26   13   14 1   
    27   13   18 ar  
    28   14   15 1   
    29   14   16 1   
    30   14   17 1   
    31   18   19 ar  
    32   18   32 1   
    33   19   20 1   
@<TRIPOS>SUBSTRUCTURE
     1 2XY         1 TEMP              0 ****  ****    0 ROOT
