@<TRIPOS>MOLECULE
2XZ
   55    57     1     0     0
SMALL
bcc


@<TRIPOS>ATOM
      1 OAE         0.0140   -0.9050   -0.1700 oh        1 2XZ     -0.599800
      2 CAK         1.4070   -0.6940   -0.2400 c3        1 2XZ      0.131400
      3 CAL         1.9960   -0.3570    1.1280 c3        1 2XZ      0.080400
      4 OAS         1.8350   -1.5510    1.9070 os        1 2XZ     -0.323900
      5 CBA         2.0530   -1.4090    3.2630 ca        1 2XZ      0.096100
      6 CAI         2.7830   -0.3700    3.8380 ca        1 2XZ     -0.128000
      7 CAZ         1.5140   -2.4390    4.0800 ca        1 2XZ      0.115100
      8 OAR         0.7970   -3.4110    3.4140 os        1 2XZ     -0.305900
      9 CAB         0.3200   -4.4900    4.2110 c3        1 2XZ      0.109700
     10 CAG         1.7290   -2.4070    5.4590 ca        1 2XZ     -0.182000
     11 CAF         2.4580   -1.3640    6.0270 ca        1 2XZ     -0.115000
     12 CAX         2.9860   -0.3450    5.2270 ca        1 2XZ     -0.132500
     13 CBD         3.7510    0.7310    5.8400 cc        1 2XZ      0.455900
     14 NAQ         3.9770    1.9280    5.2890 nd        1 2XZ     -0.616000
     15 SAU         4.4660    0.5240    7.3970 ss        1 2XZ     -0.088300
     16 CBC         5.0970    2.0780    7.3520 cc        1 2XZ     -0.165700
     17 CAM         5.9080    2.6590    8.4340 c3        1 2XZ     -0.014100
     18 CAJ         5.0730    3.4730    9.4080 c3        1 2XZ     -0.077400
     19 CAA         5.9340    4.0680   10.4920 c3        1 2XZ     -0.095100
     20 CBB         4.7500    2.7040    6.1490 cd        1 2XZ      0.336600
     21 CAN         5.1360    4.0860    5.7870 c3        1 2XZ     -0.054600
     22 SAT         6.6770    3.9410    4.9130 ss        1 2XZ     -0.200400
     23 C2          7.1550    5.5710    4.5840 ca        1 2XZ      0.791300
     24 N3          8.3530    5.6820    3.9430 nb        1 2XZ     -0.797000
     25 N1          6.3300    6.5820    4.9730 nb        1 2XZ     -0.797000
     26 C6          6.7610    7.8610    4.6990 ca        1 2XZ      0.705200
     27 NAC         6.0120    8.9430    5.1600 nv        1 2XZ     -0.938000
     28 C5          7.9850    8.0950    4.0150 ca        1 2XZ     -0.500600
     29 C4          8.7600    6.9610    3.6390 ca        1 2XZ      0.705200
     30 NAD         9.9230    7.1410    2.8940 nv        1 2XZ     -0.938000
     31 H1         -0.1320   -1.6200    0.4650 ho        1 2XZ      0.417000
     32 H2          1.5390    0.1810   -0.9300 h1        1 2XZ      0.056200
     33 H3          1.9170   -1.6000   -0.6630 h1        1 2XZ      0.056200
     34 H4          3.0860   -0.1140    1.0410 h1        1 2XZ      0.054200
     35 H5          1.4440    0.4930    1.6060 h1        1 2XZ      0.054200
     36 H6          3.2000    0.4300    3.2080 ha        1 2XZ      0.165000
     37 H7         -0.4120   -4.1240    4.9710 h1        1 2XZ      0.046033
     38 H8          1.1670   -5.0230    4.7060 h1        1 2XZ      0.046033
     39 H9         -0.1850   -5.1560    3.4660 h1        1 2XZ      0.046033
     40 H10         1.3210   -3.1960    6.1070 ha        1 2XZ      0.143000
     41 H11         2.6110   -1.3450    7.1170 ha        1 2XZ      0.137000
     42 H12         6.4370    1.8420    8.9960 hc        1 2XZ      0.061700
     43 H13         6.7050    3.3180    7.9880 hc        1 2XZ      0.061700
     44 H14         4.2850    2.8200    9.8660 hc        1 2XZ      0.045200
     45 H15         4.5440    4.2920    8.8520 hc        1 2XZ      0.045200
     46 H16         6.7090    4.7430   10.0560 hc        1 2XZ      0.036033
     47 H17         6.4540    3.2650   11.0700 hc        1 2XZ      0.036033
     48 H18         5.3070    4.6620   11.2000 hc        1 2XZ      0.036033
     49 H19         5.2540    4.7050    6.7110 h1        1 2XZ      0.094200
     50 H20         4.3610    4.5760    5.1440 h1        1 2XZ      0.094200
     51 H21         5.0800    8.7590    5.4530 hn        1 2XZ      0.416050
     52 H22         6.1410    9.7880    4.6550 hn        1 2XZ      0.416050
     53 H23         8.3200    9.1120    3.7840 ha        1 2XZ      0.146000
     54 H24        10.3640    8.0230    3.0020 hn        1 2XZ      0.416050
     55 H25        10.5300    6.3610    2.7960 hn        1 2XZ      0.416050
@<TRIPOS>BOND
     1    1    2 1   
     2    1   31 1   
     3    2    3 1   
     4    2   32 1   
     5    2   33 1   
     6    3    4 1   
     7    3   34 1   
     8    3   35 1   
     9    4    5 1   
    10    5    6 ar  
    11    5    7 ar  
    12    6   12 ar  
    13    6   36 1   
    14    7    8 1   
    15    7   10 ar  
    16    8    9 1   
    17    9   37 1   
    18    9   38 1   
    19    9   39 1   
    20   10   11 ar  
    21   10   40 1   
    22   11   12 ar  
    23   11   41 1   
    24   12   13 1   
    25   13   14 2   
    26   13   15 1   
    27   14   20 1   
    28   15   16 1   
    29   16   17 1   
    30   16   20 2   
    31   17   18 1   
    32   17   42 1   
    33   17   43 1   
    34   18   19 1   
    35   18   44 1   
    36   18   45 1   
    37   19   46 1   
    38   19   47 1   
    39   19   48 1   
    40   20   21 1   
    41   21   22 1   
    42   21   49 1   
    43   21   50 1   
    44   22   23 1   
    45   23   24 ar  
    46   23   25 ar  
    47   24   29 ar  
    48   25   26 ar  
    49   26   27 1   
    50   26   28 ar  
    51   27   51 1   
    52   27   52 1   
    53   28   29 ar  
    54   28   53 1   
    55   29   30 1   
    56   30   54 1   
    57   30   55 1   
@<TRIPOS>SUBSTRUCTURE
     1 2XZ         1 TEMP              0 ****  ****    0 ROOT
