@<TRIPOS>MOLECULE
2XZ
   55    57     1     0     0
SMALL
bcc


@<TRIPOS>ATOM
      1 OAE         0.0040   -0.9210   -0.1600 oh        1 2XZ     -0.599800
      2 CAK         1.3970   -0.7050   -0.2350 c3        1 2XZ      0.131400
      3 CAL         1.9890   -0.3680    1.1310 c3        1 2XZ      0.080400
      4 OAS         1.8360   -1.5630    1.9090 os        1 2XZ     -0.323900
      5 CBA         2.0570   -1.4220    3.2640 ca        1 2XZ      0.096100
      6 CAI         2.7850   -0.3810    3.8380 ca        1 2XZ     -0.128000
      7 CAZ         1.5240   -2.4550    4.0820 ca        1 2XZ      0.115100
      8 OAR         0.8090   -3.4280    3.4170 os        1 2XZ     -0.305900
      9 CAB         0.3390   -4.5100    4.2140 c3        1 2XZ      0.109700
     10 CAG         1.7440   -2.4230    5.4610 ca        1 2XZ     -0.182000
     11 CAF         2.4710   -1.3770    6.0270 ca        1 2XZ     -0.115000
     12 CAX         2.9930   -0.3560    5.2260 ca        1 2XZ     -0.132500
     13 CBD         3.7560    0.7220    5.8380 cc        1 2XZ      0.455900
     14 NAQ         3.9790    1.9190    5.2860 nd        1 2XZ     -0.616000
     15 SAU         4.4710    0.5180    7.3960 ss        1 2XZ     -0.088300
     16 CBC         5.0980    2.0740    7.3490 cc        1 2XZ     -0.165700
     17 CAM         5.9080    2.6580    8.4300 c3        1 2XZ     -0.014100
     18 CAJ         5.0710    3.4700    9.4040 c3        1 2XZ     -0.077400
     19 CAA         5.9310    4.0680   10.4880 c3        1 2XZ     -0.095100
     20 CBB         4.7500    2.6970    6.1450 cd        1 2XZ      0.336600
     21 CAN         5.1330    4.0800    5.7810 c3        1 2XZ     -0.054600
     22 SAT         6.6810    3.9380    4.9190 ss        1 2XZ     -0.200400
     23 C2          7.1540    5.5700    4.5870 ca        1 2XZ      0.791300
     24 N3          8.3570    5.6840    3.9550 nb        1 2XZ     -0.797000
     25 N1          6.3210    6.5790    4.9650 nb        1 2XZ     -0.797000
     26 C6          6.7470    7.8580    4.6890 ca        1 2XZ      0.705200
     27 NAC         5.9890    8.9390    5.1390 nh        1 2XZ     -0.938000
     28 C5          7.9760    8.0960    4.0140 ca        1 2XZ     -0.500600
     29 C4          8.7600    6.9640    3.6490 ca        1 2XZ      0.705200
     30 NAD         9.9280    7.1460    2.9140 nh        1 2XZ     -0.938000
     31 H1         -0.1360   -1.6370    0.4730 ho        1 2XZ      0.417000
     32 H2          1.9070   -1.6090   -0.6610 h1        1 2XZ      0.056200
     33 H3          1.5230    0.1710   -0.9250 h1        1 2XZ      0.056200
     34 H4          3.0780   -0.1210    1.0400 h1        1 2XZ      0.054200
     35 H5          1.4360    0.4800    1.6110 h1        1 2XZ      0.054200
     36 H6          3.1980    0.4220    3.2070 ha        1 2XZ      0.165000
     37 H7         -0.1660   -5.1770    3.4700 h1        1 2XZ      0.046033
     38 H8          1.1900   -5.0400    4.7060 h1        1 2XZ      0.046033
     39 H9         -0.3920   -4.1480    4.9780 h1        1 2XZ      0.046033
     40 H10         1.3410   -3.2140    6.1090 ha        1 2XZ      0.143000
     41 H11         2.6280   -1.3590    7.1170 ha        1 2XZ      0.137000
     42 H12         6.4400    1.8430    8.9920 hc        1 2XZ      0.061700
     43 H13         6.7020    3.3190    7.9830 hc        1 2XZ      0.061700
     44 H14         4.2860    2.8140    9.8630 hc        1 2XZ      0.045200
     45 H15         4.5380    4.2860    8.8480 hc        1 2XZ      0.045200
     46 H16         5.3020    4.6600   11.1950 hc        1 2XZ      0.036033
     47 H17         6.7030    4.7460   10.0500 hc        1 2XZ      0.036033
     48 H18         6.4540    3.2680   11.0650 hc        1 2XZ      0.036033
     49 H19         4.3610    4.5650    5.1320 h1        1 2XZ      0.094200
     50 H20         5.2430    4.7020    6.7040 h1        1 2XZ      0.094200
     51 H21         6.1190    9.7820    4.6310 hn        1 2XZ      0.416050
     52 H22         5.0560    8.7510    5.4250 hn        1 2XZ      0.416050
     53 H23         8.3080    9.1130    3.7820 ha        1 2XZ      0.146000
     54 H24        10.3640    8.0310    3.0210 hn        1 2XZ      0.416050
     55 H25        10.5400    6.3680    2.8240 hn        1 2XZ      0.416050
@<TRIPOS>BOND
     1    1    2 1   
     2    1   31 1   
     3    2    3 1   
     4    2   32 1   
     5    2   33 1   
     6    3    4 1   
     7    3   34 1   
     8    3   35 1   
     9    4    5 1   
    10    5    6 ar  
    11    5    7 ar  
    12    6   12 ar  
    13    6   36 1   
    14    7    8 1   
    15    7   10 ar  
    16    8    9 1   
    17    9   37 1   
    18    9   38 1   
    19    9   39 1   
    20   10   11 ar  
    21   10   40 1   
    22   11   12 ar  
    23   11   41 1   
    24   12   13 1   
    25   13   14 2   
    26   13   15 1   
    27   14   20 1   
    28   15   16 1   
    29   16   17 1   
    30   16   20 2   
    31   17   18 1   
    32   17   42 1   
    33   17   43 1   
    34   18   19 1   
    35   18   44 1   
    36   18   45 1   
    37   19   46 1   
    38   19   47 1   
    39   19   48 1   
    40   20   21 1   
    41   21   22 1   
    42   21   49 1   
    43   21   50 1   
    44   22   23 1   
    45   23   24 ar  
    46   23   25 ar  
    47   24   29 ar  
    48   25   26 ar  
    49   26   27 1   
    50   26   28 ar  
    51   27   51 1   
    52   27   52 1   
    53   28   29 ar  
    54   28   53 1   
    55   29   30 1   
    56   30   54 1   
    57   30   55 1   
@<TRIPOS>SUBSTRUCTURE
     1 2XZ         1 TEMP              0 ****  ****    0 ROOT
