@<TRIPOS>MOLECULE
2Y0
   59    61     1     0     0
SMALL
bcc


@<TRIPOS>ATOM
      1 CAB         0.4160    2.6430   -5.0000 c3        1 2Y0     -0.536300
      2 SBF         1.4480    1.6230   -4.2890 s6        1 2Y0      1.438900
      3 OAE         0.8510    0.6890   -3.4680 o         1 2Y0     -0.571800
      4 OAF         2.5720    1.2870   -5.0110 o         1 2Y0     -0.571800
      5 NAT         2.2250    2.8280   -3.0270 ny        1 2Y0     -0.710900
      6 CAM         1.7720    2.6000   -1.6390 c3        1 2Y0      0.073800
      7 CAN         2.4800    3.4550   -0.5810 c3        1 2Y0      0.106400
      8 OAU         2.1330    4.8280   -0.7240 os        1 2Y0     -0.324900
      9 CAZ         2.9950    5.5440   -1.5550 ca        1 2Y0      0.049100
     10 CAK         2.4860    5.9830   -2.7820 ca        1 2Y0     -0.157000
     11 CAH         4.2900    5.8770   -1.1420 ca        1 2Y0     -0.133000
     12 CAG         5.0880    6.6420   -1.9930 ca        1 2Y0     -0.096000
     13 CAI         4.6220    7.0290   -3.2500 ca        1 2Y0     -0.115000
     14 CBA         3.3240    6.6880   -3.6560 ca        1 2Y0     -0.098500
     15 CBE         2.8530    6.9830   -5.0020 cc        1 2Y0      0.384900
     16 NAS         2.0290    6.1510   -5.6660 nd        1 2Y0     -0.663000
     17 SAW         3.3110    8.3700   -5.8800 ss        1 2Y0      0.034700
     18 CBD         2.4170    7.8800   -7.2060 cc        1 2Y0     -0.161700
     19 CAO         2.3440    8.6440   -8.4610 c3        1 2Y0     -0.020100
     20 CAL         0.9970    9.3210   -8.6490 c3        1 2Y0     -0.076400
     21 CAA         0.9460   10.0680   -9.9570 c3        1 2Y0     -0.098100
     22 CBC         1.7800    6.6590   -6.9320 cd        1 2Y0      0.329600
     23 CAP         0.8920    5.9520   -7.8820 c3        1 2Y0     -0.044600
     24 SAV         1.3050    4.2230   -7.8000 ss        1 2Y0     -0.249400
     25 C2          0.0050    3.4170   -8.6380 ca        1 2Y0      0.792300
     26 N3         -0.0810    2.0870   -8.3590 nb        1 2Y0     -0.815500
     27 N1         -0.7630    4.1470   -9.4800 nb        1 2Y0     -0.815500
     28 C6         -1.7570    3.4560  -10.1500 ca        1 2Y0      0.723700
     29 NAC        -2.6220    4.1490  -10.9670 nv        1 2Y0     -0.944500
     30 C5         -1.9120    2.0500   -9.9740 ca        1 2Y0     -0.497600
     31 C4         -1.0510    1.3910   -9.0540 ca        1 2Y0      0.723700
     32 NAD        -1.2300    0.0380   -8.7870 nv        1 2Y0     -0.944500
     33 H1          0.8730    3.3500   -5.7960 h1        1 2Y0      0.198033
     34 H2         -0.1940    3.3220   -4.3480 h1        1 2Y0      0.198033
     35 H3         -0.3660    2.1030   -5.6220 h1        1 2Y0      0.198033
     36 H4          2.0300    3.8000   -3.2800 hn        1 2Y0      0.456300
     37 H5          1.9310    1.5100   -1.3880 hx        1 2Y0      0.113700
     38 H6          0.6650    2.8180   -1.5990 hx        1 2Y0      0.113700
     39 H7          2.0690    3.1700    0.4280 h1        1 2Y0      0.091700
     40 H8          3.5900    3.3030   -0.6000 h1        1 2Y0      0.091700
     41 H9          1.4280    5.8130   -3.0350 ha        1 2Y0      0.154000
     42 H10         4.6610    5.5520   -0.1590 ha        1 2Y0      0.160000
     43 H11         6.1020    6.9350   -1.6730 ha        1 2Y0      0.160000
     44 H12         5.2790    7.6000   -3.9260 ha        1 2Y0      0.155000
     45 H13         3.1540    9.4250   -8.4820 hc        1 2Y0      0.066200
     46 H14         2.5360    7.9530   -9.3290 hc        1 2Y0      0.066200
     47 H15         0.1860    8.5460   -8.6190 hc        1 2Y0      0.046200
     48 H16         0.8110   10.0310   -7.8010 hc        1 2Y0      0.046200
     49 H17         1.7360   10.8560   -9.9940 hc        1 2Y0      0.042033
     50 H18         1.1030    9.3720  -10.8170 hc        1 2Y0      0.042033
     51 H19        -0.0490   10.5600  -10.0790 hc        1 2Y0      0.042033
     52 H20        -0.1810    6.1230   -7.6130 h1        1 2Y0      0.101700
     53 H21         1.0460    6.3380   -8.9210 h1        1 2Y0      0.101700
     54 H22        -2.4350    5.0950  -11.1960 hn        1 2Y0      0.432300
     55 H23        -3.2020    3.6250  -11.5760 hn        1 2Y0      0.432300
     56 H24        -2.6840    1.4960  -10.5210 ha        1 2Y0      0.158000
     57 H25        -1.7500   -0.4650   -9.4690 hn        1 2Y0      0.432300
     58 H26        -0.4730   -0.4560   -8.3750 hn        1 2Y0      0.432300
     59 HAT2        3.2400    2.7210   -3.0650 hn        1 2Y0      0.456300
@<TRIPOS>BOND
     1    1    2 1   
     2    1   33 1   
     3    1   34 1   
     4    1   35 1   
     5    2    3 2   
     6    2    4 2   
     7    2    5 1   
     8    5    6 1   
     9    5   36 1   
    10    5   59 1   
    11    6    7 1   
    12    6   37 1   
    13    6   38 1   
    14    7    8 1   
    15    7   39 1   
    16    7   40 1   
    17    8    9 1   
    18    9   10 ar  
    19    9   11 ar  
    20   10   14 ar  
    21   10   41 1   
    22   11   12 ar  
    23   11   42 1   
    24   12   13 ar  
    25   12   43 1   
    26   13   14 ar  
    27   13   44 1   
    28   14   15 1   
    29   15   16 2   
    30   15   17 1   
    31   16   22 1   
    32   17   18 1   
    33   18   19 1   
    34   18   22 2   
    35   19   20 1   
    36   19   45 1   
    37   19   46 1   
    38   20   21 1   
    39   20   47 1   
    40   20   48 1   
    41   21   49 1   
    42   21   50 1   
    43   21   51 1   
    44   22   23 1   
    45   23   24 1   
    46   23   52 1   
    47   23   53 1   
    48   24   25 1   
    49   25   26 ar  
    50   25   27 ar  
    51   26   31 ar  
    52   27   28 ar  
    53   28   29 1   
    54   28   30 ar  
    55   29   54 1   
    56   29   55 1   
    57   30   31 ar  
    58   30   56 1   
    59   31   32 1   
    60   32   57 1   
    61   32   58 1   
@<TRIPOS>SUBSTRUCTURE
     1 2Y0         1 TEMP              0 ****  ****    0 ROOT
