@<TRIPOS>MOLECULE
2Y0
   59    61     1     0     0
SMALL
bcc


@<TRIPOS>ATOM
      1 CAB         0.4350    2.6250   -5.0270 c3        1 2Y0     -0.536300
      2 SBF         1.4790    1.5950   -4.3480 s6        1 2Y0      1.438900
      3 OAE         0.8950    0.6460   -3.5340 o         1 2Y0     -0.571800
      4 OAF         2.5930    1.2730   -5.0910 o         1 2Y0     -0.571800
      5 NAT         2.2720    2.7800   -3.0770 n4        1 2Y0     -0.710900
      6 CAM         1.8410    2.5280   -1.6870 c3        1 2Y0      0.074800
      7 CAN         2.5620    3.3670   -0.6250 c3        1 2Y0      0.106400
      8 OAU         2.2080    4.7420   -0.7400 os        1 2Y0     -0.324900
      9 CAZ         3.0580    5.4740   -1.5710 ca        1 2Y0      0.049100
     10 CAK         2.5300    5.9320   -2.7830 ca        1 2Y0     -0.157000
     11 CAH         4.3580    5.8030   -1.1710 ca        1 2Y0     -0.133000
     12 CAG         5.1420    6.5840   -2.0200 ca        1 2Y0     -0.096000
     13 CAI         4.6570    6.9910   -3.2630 ca        1 2Y0     -0.115000
     14 CBA         3.3540    6.6530   -3.6570 ca        1 2Y0     -0.098500
     15 CBE         2.8630    6.9700   -4.9910 cc        1 2Y0      0.384900
     16 NAS         2.0310    6.1470   -5.6570 nd        1 2Y0     -0.663000
     17 SAW         3.3050    8.3720   -5.8520 ss        1 2Y0      0.034700
     18 CBD         2.3930    7.9020   -7.1730 cc        1 2Y0     -0.161700
     19 CAO         2.3010    8.6870   -8.4150 c3        1 2Y0     -0.020100
     20 CAL         0.9500    9.3640   -8.5710 c3        1 2Y0     -0.076400
     21 CAA         0.8790   10.1330   -9.8660 c3        1 2Y0     -0.098100
     22 CBC         1.7630    6.6750   -6.9110 cd        1 2Y0      0.329600
     23 CAP         0.8630    5.9820   -7.8590 c3        1 2Y0     -0.044600
     24 SAV         1.2800    4.2530   -7.8120 ss        1 2Y0     -0.249400
     25 C2         -0.0290    3.4580   -8.6450 ca        1 2Y0      0.792300
     26 N3         -0.1090    2.1240   -8.3860 nb        1 2Y0     -0.815500
     27 N1         -0.8110    4.2010   -9.4630 nb        1 2Y0     -0.815500
     28 C6         -1.8130    3.5180  -10.1310 ca        1 2Y0      0.723700
     29 NAC        -2.6910    4.2230  -10.9230 nh        1 2Y0     -0.944500
     30 C5         -1.9630    2.1090   -9.9760 ca        1 2Y0     -0.497600
     31 C4         -1.0880    1.4370   -9.0790 ca        1 2Y0      0.723700
     32 NAD        -1.2610    0.0800   -8.8330 nh        1 2Y0     -0.944500
     33 H1          0.8790    3.3460   -5.8170 h1        1 2Y0      0.198033
     34 H2         -0.1660    3.2920   -4.3540 h1        1 2Y0      0.198033
     35 H3         -0.3550    2.0940   -5.6460 h1        1 2Y0      0.198033
     36 H4          2.0710    3.7560   -3.3100 hn        1 2Y0      0.456300
     37 H5          0.7340    2.7420   -1.6260 hx        1 2Y0      0.113700
     38 H6          2.0060    1.4340   -1.4560 hx        1 2Y0      0.113700
     39 H7          3.6710    3.2180   -0.6620 h1        1 2Y0      0.091700
     40 H8          2.1650    3.0640    0.3860 h1        1 2Y0      0.091700
     41 H9          1.4680    5.7630   -3.0240 ha        1 2Y0      0.154000
     42 H10         4.7430    5.4630   -0.1980 ha        1 2Y0      0.160000
     43 H11         6.1590    6.8740   -1.7100 ha        1 2Y0      0.160000
     44 H12         5.3020    7.5740   -3.9390 ha        1 2Y0      0.155000
     45 H13         2.4820    8.0110   -9.2970 hc        1 2Y0      0.066200
     46 H14         3.1090    9.4700   -8.4340 hc        1 2Y0      0.066200
     47 H15         0.7750   10.0600   -7.7090 hc        1 2Y0      0.046200
     48 H16         0.1410    8.5870   -8.5430 hc        1 2Y0      0.046200
     49 H17        -0.1190   10.6250   -9.9650 hc        1 2Y0      0.042033
     50 H18         1.6670   10.9240   -9.9010 hc        1 2Y0      0.042033
     51 H19         1.0250    9.4520  -10.7390 hc        1 2Y0      0.042033
     52 H20        -0.2070    6.1460   -7.5720 h1        1 2Y0      0.101700
     53 H21         1.0010    6.3860   -8.8940 h1        1 2Y0      0.101700
     54 H22        -2.5100    5.1730  -11.1390 hn        1 2Y0      0.432300
     55 H23        -3.2790    3.7080  -11.5330 hn        1 2Y0      0.432300
     56 H24        -2.7420    1.5630  -10.5210 ha        1 2Y0      0.158000
     57 H25        -0.4970   -0.4200   -8.4390 hn        1 2Y0      0.432300
     58 H26        -1.7890   -0.4130   -9.5150 hn        1 2Y0      0.432300
     59 HAT2        3.2870    2.6760   -3.1320 hn        1 2Y0      0.456300
@<TRIPOS>BOND
     1    1    2 1   
     2    1   33 1   
     3    1   34 1   
     4    1   35 1   
     5    2    3 2   
     6    2    4 2   
     7    2    5 1   
     8    5    6 1   
     9    5   36 1   
    10    5   59 1   
    11    6    7 1   
    12    6   37 1   
    13    6   38 1   
    14    7    8 1   
    15    7   39 1   
    16    7   40 1   
    17    8    9 1   
    18    9   10 ar  
    19    9   11 ar  
    20   10   14 ar  
    21   10   41 1   
    22   11   12 ar  
    23   11   42 1   
    24   12   13 ar  
    25   12   43 1   
    26   13   14 ar  
    27   13   44 1   
    28   14   15 1   
    29   15   16 2   
    30   15   17 1   
    31   16   22 1   
    32   17   18 1   
    33   18   19 1   
    34   18   22 2   
    35   19   20 1   
    36   19   45 1   
    37   19   46 1   
    38   20   21 1   
    39   20   47 1   
    40   20   48 1   
    41   21   49 1   
    42   21   50 1   
    43   21   51 1   
    44   22   23 1   
    45   23   24 1   
    46   23   52 1   
    47   23   53 1   
    48   24   25 1   
    49   25   26 ar  
    50   25   27 ar  
    51   26   31 ar  
    52   27   28 ar  
    53   28   29 1   
    54   28   30 ar  
    55   29   54 1   
    56   29   55 1   
    57   30   31 ar  
    58   30   56 1   
    59   31   32 1   
    60   32   57 1   
    61   32   58 1   
@<TRIPOS>SUBSTRUCTURE
     1 2Y0         1 TEMP              0 ****  ****    0 ROOT
