@<TRIPOS>MOLECULE
2Y1
   57    59     1     0     0
SMALL
bcc


@<TRIPOS>ATOM
      1 FAF        -0.0040    0.8460   -0.0110 f         1 2Y1     -0.240300
      2 CAL         1.2260    0.2220    0.0160 c3        1 2Y1      0.157900
      3 CAM         1.8340    0.2200    1.4270 c3        1 2Y1      0.088400
      4 OAS         1.5530   -1.0790    1.9590 os        1 2Y1     -0.306900
      5 CAZ         1.9130   -1.2780    3.2770 ca        1 2Y1      0.103100
      6 CAJ         2.6330   -0.3760    4.0530 ca        1 2Y1     -0.172000
      7 CAY         1.5060   -2.5240    3.8310 ca        1 2Y1      0.119100
      8 OAR         0.8060   -3.3480    2.9760 os        1 2Y1     -0.302900
      9 CAB         0.3540   -4.5800    3.5290 c3        1 2Y1      0.109700
     10 CAH         1.8310   -2.8290    5.1510 ca        1 2Y1     -0.188000
     11 CAG         2.5520   -1.9170    5.9260 ca        1 2Y1     -0.076000
     12 CAX         2.9570   -0.6950    5.3860 ca        1 2Y1     -0.135500
     13 CBC         3.7160    0.2610    6.1760 cc        1 2Y1      0.460900
     14 NAQ         3.7840    0.2740    7.5110 nd        1 2Y1     -0.616000
     15 SAU         4.6430    1.5010    5.4120 ss        1 2Y1     -0.103300
     16 CBB         5.1550    2.0850    6.9020 cc        1 2Y1     -0.162700
     17 CAN         6.0480    3.2470    7.0370 c3        1 2Y1     -0.008100
     18 CAK         7.4790    2.8380    7.3430 c3        1 2Y1     -0.083400
     19 CAA         8.3530    4.0460    7.5590 c3        1 2Y1     -0.093100
     20 CBD         4.6070    1.3150    7.9340 cd        1 2Y1      0.338600
     21 CBE         4.8440    1.5650    9.3830 c3        1 2Y1     -0.020900
     22 CAC         3.5780    1.5100   10.2000 c3        1 2Y1     -0.083100
     23 SAT         6.0050    0.2780    9.8470 ss        1 2Y1     -0.204400
     24 C2          6.8490    0.8500   11.2460 ca        1 2Y1      0.792300
     25 N3          7.8060   -0.0110   11.6980 nb        1 2Y1     -0.797500
     26 N1          6.5180    2.0610   11.7720 nb        1 2Y1     -0.797500
     27 C6          7.2390    2.4690   12.8710 ca        1 2Y1      0.704200
     28 NAD         7.0190    3.7430   13.3930 nh        1 2Y1     -0.937500
     29 C5          8.2460    1.6420   13.4400 ca        1 2Y1     -0.500600
     30 C4          8.4960    0.3840   12.8200 ca        1 2Y1      0.704200
     31 NAE         9.4130   -0.4930   13.3940 nh        1 2Y1     -0.937500
     32 H1          1.9220    0.7720   -0.6750 h1        1 2Y1      0.060700
     33 H2          1.1050   -0.8390   -0.3430 h1        1 2Y1      0.060700
     34 H3          2.9430    0.3650    1.3720 h1        1 2Y1      0.053200
     35 H4          1.3670    1.0120    2.0670 h1        1 2Y1      0.053200
     36 H5          2.9500    0.5930    3.6370 ha        1 2Y1      0.141000
     37 H6         -0.1950   -5.0570    2.6780 h1        1 2Y1      0.046700
     38 H7          1.2200   -5.2120    3.8440 h1        1 2Y1      0.046700
     39 H8         -0.3340   -4.3990    4.3900 h1        1 2Y1      0.046700
     40 H9          1.5240   -3.7860    5.5970 ha        1 2Y1      0.145000
     41 H10         2.7990   -2.1730    6.9680 ha        1 2Y1      0.160000
     42 H11         6.0320    3.8520    6.0900 hc        1 2Y1      0.053700
     43 H12         5.6710    3.9180    7.8590 hc        1 2Y1      0.053700
     44 H13         7.8830    2.2250    6.4950 hc        1 2Y1      0.053200
     45 H14         7.4900    2.1870    8.2580 hc        1 2Y1      0.053200
     46 H15         9.4030    3.7280    7.7700 hc        1 2Y1      0.034700
     47 H16         8.3580    4.6990    6.6530 hc        1 2Y1      0.034700
     48 H17         7.9880    4.6490    8.4250 hc        1 2Y1      0.034700
     49 H18         5.3200    2.5750    9.4990 h1        1 2Y1      0.098700
     50 H19         2.8140    2.2020    9.7670 hc        1 2Y1      0.051033
     51 H20         3.7860    1.8250   11.2520 hc        1 2Y1      0.051033
     52 H21         3.1510    0.4780   10.2130 hc        1 2Y1      0.051033
     53 H22         6.1870    4.2110   13.1120 hn        1 2Y1      0.415050
     54 H23         7.2640    3.8510   14.3500 hn        1 2Y1      0.415050
     55 H24         8.8090    1.9600   14.3230 ha        1 2Y1      0.146000
     56 H25        10.1230   -0.0670   13.9420 hn        1 2Y1      0.415050
     57 H26         9.6960   -1.2780   12.8540 hn        1 2Y1      0.415050
@<TRIPOS>BOND
     1    1    2 1   
     2    2    3 1   
     3    2   32 1   
     4    2   33 1   
     5    3    4 1   
     6    3   34 1   
     7    3   35 1   
     8    4    5 1   
     9    5    6 ar  
    10    5    7 ar  
    11    6   12 ar  
    12    6   36 1   
    13    7    8 1   
    14    7   10 ar  
    15    8    9 1   
    16    9   37 1   
    17    9   38 1   
    18    9   39 1   
    19   10   11 ar  
    20   10   40 1   
    21   11   12 ar  
    22   11   41 1   
    23   12   13 1   
    24   13   14 2   
    25   13   15 1   
    26   14   20 1   
    27   15   16 1   
    28   16   17 1   
    29   16   20 2   
    30   17   18 1   
    31   17   42 1   
    32   17   43 1   
    33   18   19 1   
    34   18   44 1   
    35   18   45 1   
    36   19   46 1   
    37   19   47 1   
    38   19   48 1   
    39   20   21 1   
    40   21   22 1   
    41   21   23 1   
    42   21   49 1   
    43   22   50 1   
    44   22   51 1   
    45   22   52 1   
    46   23   24 1   
    47   24   25 ar  
    48   24   26 ar  
    49   25   30 ar  
    50   26   27 ar  
    51   27   28 1   
    52   27   29 ar  
    53   28   53 1   
    54   28   54 1   
    55   29   30 ar  
    56   29   55 1   
    57   30   31 1   
    58   31   56 1   
    59   31   57 1   
@<TRIPOS>SUBSTRUCTURE
     1 2Y1         1 TEMP              0 ****  ****    0 ROOT
