@<TRIPOS>MOLECULE
2Y1
   57    59     1     0     0
SMALL
bcc


@<TRIPOS>ATOM
      1 FAF        -0.0170    0.8310   -0.0020 f         1 2Y1     -0.240300
      2 CAL         1.2180    0.2150    0.0200 c3        1 2Y1      0.157900
      3 CAM         1.8300    0.2140    1.4280 c3        1 2Y1      0.088400
      4 OAS         1.5590   -1.0870    1.9590 os        1 2Y1     -0.306900
      5 CAZ         1.9180   -1.2840    3.2770 ca        1 2Y1      0.103100
      6 CAJ         2.6380   -0.3810    4.0520 ca        1 2Y1     -0.172000
      7 CAY         1.5110   -2.5300    3.8330 ca        1 2Y1      0.119100
      8 OAR         0.8110   -3.3550    2.9800 os        1 2Y1     -0.302900
      9 CAB         0.3600   -4.5870    3.5340 c3        1 2Y1      0.109700
     10 CAH         1.8370   -2.8330    5.1540 ca        1 2Y1     -0.188000
     11 CAG         2.5580   -1.9200    5.9270 ca        1 2Y1     -0.076000
     12 CAX         2.9620   -0.6980    5.3850 ca        1 2Y1     -0.135500
     13 CBC         3.7230    0.2580    6.1740 cc        1 2Y1      0.460900
     14 NAQ         3.7870    0.2760    7.5090 nd        1 2Y1     -0.616000
     15 SAU         4.6530    1.4940    5.4080 ss        1 2Y1     -0.103300
     16 CBB         5.1630    2.0810    6.8970 cc        1 2Y1     -0.162700
     17 CAN         6.0580    3.2420    7.0310 c3        1 2Y1     -0.008100
     18 CAK         7.4880    2.8320    7.3400 c3        1 2Y1     -0.083400
     19 CAA         8.3640    4.0380    7.5530 c3        1 2Y1     -0.093100
     20 CBD         4.6110    1.3160    7.9300 cd        1 2Y1      0.338600
     21 CBE         4.8450    1.5710    9.3790 c3        1 2Y1     -0.020900
     22 CAC         3.5770    1.5220   10.1930 c3        1 2Y1     -0.083100
     23 SAT         6.0030    0.2830    9.8500 ss        1 2Y1     -0.204400
     24 C2          6.8430    0.8570   11.2500 ca        1 2Y1      0.792300
     25 N3          7.7960   -0.0050   11.7080 nb        1 2Y1     -0.797500
     26 N1          6.5130    2.0700   11.7710 nb        1 2Y1     -0.797500
     27 C6          7.2310    2.4800   12.8710 ca        1 2Y1      0.704200
     28 NAD         7.0110    3.7560   13.3900 nv        1 2Y1     -0.937500
     29 C5          8.2350    1.6530   13.4460 ca        1 2Y1     -0.500600
     30 C4          8.4840    0.3930   12.8310 ca        1 2Y1      0.704200
     31 NAE         9.3970   -0.4840   13.4110 nv        1 2Y1     -0.937500
     32 H1          1.9080    0.7710   -0.6720 h1        1 2Y1      0.060700
     33 H2          1.1020   -0.8450   -0.3410 h1        1 2Y1      0.060700
     34 H3          1.3620    1.0020    2.0720 h1        1 2Y1      0.053200
     35 H4          2.9390    0.3660    1.3690 h1        1 2Y1      0.053200
     36 H5          2.9550    0.5870    3.6350 ha        1 2Y1      0.141000
     37 H6         -0.1890   -5.0650    2.6840 h1        1 2Y1      0.046700
     38 H7          1.2260   -5.2180    3.8500 h1        1 2Y1      0.046700
     39 H8         -0.3280   -4.4050    4.3960 h1        1 2Y1      0.046700
     40 H9          1.5290   -3.7890    5.6010 ha        1 2Y1      0.145000
     41 H10         2.8050   -2.1740    6.9700 ha        1 2Y1      0.160000
     42 H11         5.6810    3.9160    7.8490 hc        1 2Y1      0.053700
     43 H12         6.0450    3.8450    6.0820 hc        1 2Y1      0.053700
     44 H13         7.4960    2.1840    8.2580 hc        1 2Y1      0.053200
     45 H14         7.8910    2.2140    6.4950 hc        1 2Y1      0.053200
     46 H15         9.4130    3.7180    7.7670 hc        1 2Y1      0.034700
     47 H16         7.9990    4.6460    8.4160 hc        1 2Y1      0.034700
     48 H17         8.3720    4.6880    6.6440 hc        1 2Y1      0.034700
     49 H18         5.3230    2.5800    9.4930 h1        1 2Y1      0.098700
     50 H19         2.8150    2.2130    9.7560 hc        1 2Y1      0.051033
     51 H20         3.1480    0.4900   10.2080 hc        1 2Y1      0.051033
     52 H21         3.7830    1.8390   11.2440 hc        1 2Y1      0.051033
     53 H22         7.2540    3.8670   14.3460 hn        1 2Y1      0.415050
     54 H23         6.1820    4.2250   13.1040 hn        1 2Y1      0.415050
     55 H24         8.7950    1.9720   14.3310 ha        1 2Y1      0.146000
     56 H25         9.6800   -1.2720   12.8740 hn        1 2Y1      0.415050
     57 H26        10.1060   -0.0580   13.9590 hn        1 2Y1      0.415050
@<TRIPOS>BOND
     1    1    2 1   
     2    2    3 1   
     3    2   32 1   
     4    2   33 1   
     5    3    4 1   
     6    3   34 1   
     7    3   35 1   
     8    4    5 1   
     9    5    6 ar  
    10    5    7 ar  
    11    6   12 ar  
    12    6   36 1   
    13    7    8 1   
    14    7   10 ar  
    15    8    9 1   
    16    9   37 1   
    17    9   38 1   
    18    9   39 1   
    19   10   11 ar  
    20   10   40 1   
    21   11   12 ar  
    22   11   41 1   
    23   12   13 1   
    24   13   14 2   
    25   13   15 1   
    26   14   20 1   
    27   15   16 1   
    28   16   17 1   
    29   16   20 2   
    30   17   18 1   
    31   17   42 1   
    32   17   43 1   
    33   18   19 1   
    34   18   44 1   
    35   18   45 1   
    36   19   46 1   
    37   19   47 1   
    38   19   48 1   
    39   20   21 1   
    40   21   22 1   
    41   21   23 1   
    42   21   49 1   
    43   22   50 1   
    44   22   51 1   
    45   22   52 1   
    46   23   24 1   
    47   24   25 ar  
    48   24   26 ar  
    49   25   30 ar  
    50   26   27 ar  
    51   27   28 1   
    52   27   29 ar  
    53   28   53 1   
    54   28   54 1   
    55   29   30 ar  
    56   29   55 1   
    57   30   31 1   
    58   31   56 1   
    59   31   57 1   
@<TRIPOS>SUBSTRUCTURE
     1 2Y1         1 TEMP              0 ****  ****    0 ROOT
