@<TRIPOS>MOLECULE
2Y2
   93    96     1     0     0
SMALL
bcc


@<TRIPOS>ATOM
      1 N2          6.4730   -0.3690    0.5620 nc        1 2Y2     -0.540100
      2 C1          5.7960   -0.4740   -0.6040 cd        1 2Y2      0.354800
      3 N1          6.4840    0.0980   -1.6950 na        1 2Y2     -0.240300
      4 C7          7.6780    0.6000   -1.1850 ca        1 2Y2     -0.061200
      5 C6          8.7610    1.2700   -1.7780 ca        1 2Y2     -0.135000
      6 C5          9.8100    1.6340   -0.9540 ca        1 2Y2     -0.102000
      7 C4          9.8060    1.3500    0.4280 ca        1 2Y2     -0.153000
      8 C3          8.7530    0.6920    1.0370 ca        1 2Y2     -0.061000
      9 C2          7.6630    0.3020    0.2390 ca        1 2Y2      0.057400
     10 C8          4.4550   -1.1060   -0.8130 c         1 2Y2      0.621800
     11 O1          3.8960   -1.0380   -1.9310 o         1 2Y2     -0.632100
     12 N3          3.8790   -1.7370    0.2600 n         1 2Y2     -0.533900
     13 C9          2.6310   -2.4530    0.1330 c3        1 2Y2      0.055700
     14 C10         2.5000   -3.5980    1.1350 c3        1 2Y2     -0.029300
     15 S1          3.7270   -4.8220    0.7850 ss        1 2Y2     -0.285200
     16 C11         3.2580   -6.1110    1.8760 c3        1 2Y2     -0.041000
     17 C12         1.4040   -1.5160    0.3210 c         1 2Y2      0.639100
     18 O2          0.5950   -1.6990    1.2540 o         1 2Y2     -0.627100
     19 N4          1.2700   -0.4840   -0.5750 n         1 2Y2     -0.543900
     20 C13         0.1100    0.3800   -0.5430 c3        1 2Y2      0.070700
     21 C14         0.3580    1.7120   -1.2650 c3        1 2Y2     -0.089400
     22 C15         1.2590    2.6540   -0.4820 c3        1 2Y2     -0.063700
     23 C16         0.4990    3.3250    0.6550 c3        1 2Y2     -0.074900
     24 C17         1.8380    3.7110   -1.4150 c3        1 2Y2     -0.074900
     25 C18         1.3860    4.2920    1.4110 c3        1 2Y2     -0.076400
     26 C19         2.7240    4.6820   -0.6630 c3        1 2Y2     -0.076400
     27 C20         1.9800    5.3330    0.4860 c3        1 2Y2     -0.077400
     28 C21        -1.1590   -0.3130   -1.1220 c3        1 2Y2      0.111100
     29 O3         -1.0830   -0.4490   -2.5290 oh        1 2Y2     -0.593800
     30 C22        -2.4240    0.4280   -0.6900 c3        1 2Y2     -0.104400
     31 C23        -3.4060   -0.4860    0.0290 c3        1 2Y2     -0.123700
     32 C24        -2.8810   -0.8640    1.4130 c3        1 2Y2     -0.018300
     33 C25        -3.5150   -2.0310    1.9520 c1        1 2Y2     -0.139100
     34 C26        -4.0250   -3.0080    2.4190 c1        1 2Y2     -0.162500
     35 C27        -4.7590    0.2210    0.1320 c         1 2Y2      0.658100
     36 O4         -4.9140    1.3970   -0.2570 o         1 2Y2     -0.619100
     37 O5        -12.0940    0.7050   -0.7600 os        1 2Y2     -0.415600
     38 C28       -11.8830   -0.6840   -0.5410 c3        1 2Y2      0.126400
     39 C29       -10.4170   -1.0750   -0.7520 c3        1 2Y2      0.130300
     40 N5         -9.5010   -0.2550    0.0340 n3        1 2Y2     -0.724600
     41 C30        -9.7750    1.1690   -0.1240 c3        1 2Y2      0.130300
     42 C31       -11.2580    1.5090    0.0630 c3        1 2Y2      0.126400
     43 C32        -8.1120   -0.5960   -0.2430 c3        1 2Y2      0.144800
     44 C33        -7.1350    0.0290    0.7840 c3        1 2Y2      0.089000
     45 N6         -5.8040   -0.4940    0.6750 n         1 2Y2     -0.570900
     46 HN1         6.1570    0.1270   -2.6260 hn        1 2Y2      0.326700
     47 H6          8.7700    1.4930   -2.8530 ha        1 2Y2      0.141000
     48 H5         10.6770    2.1600   -1.3830 ha        1 2Y2      0.136000
     49 H4         10.6710    1.6650    1.0320 ha        1 2Y2      0.137000
     50 H3          8.7570    0.4730    2.1140 ha        1 2Y2      0.150000
     51 HN3         4.3480   -1.7760    1.1370 hn        1 2Y2      0.351500
     52 H9          2.5670   -2.8770   -0.9190 h1        1 2Y2      0.104700
     53 H10         1.4720   -4.0310    1.0380 h1        1 2Y2      0.087200
     54 H10A        2.5960   -3.2220    2.1840 h1        1 2Y2      0.087200
     55 H11         3.9870   -6.9380    1.7070 h1        1 2Y2      0.066367
     56 H11A        3.3080   -5.7930    2.9410 h1        1 2Y2      0.066367
     57 H11B        2.2310   -6.4820    1.6640 h1        1 2Y2      0.066367
     58 HN4         1.8360   -0.4690   -1.3960 hn        1 2Y2      0.339500
     59 H13        -0.1110    0.5880    0.5500 h1        1 2Y2      0.080700
     60 H14         0.8090    1.5180   -2.2760 hc        1 2Y2      0.052200
     61 H14A       -0.6370    2.2040   -1.4340 hc        1 2Y2      0.052200
     62 H15         2.1140    2.0690   -0.0410 hc        1 2Y2      0.059700
     63 H16        -0.3860    3.8750    0.2390 hc        1 2Y2      0.040200
     64 H16A        0.1090    2.5460    1.3610 hc        1 2Y2      0.040200
     65 H17         2.4340    3.2110   -2.2230 hc        1 2Y2      0.040200
     66 H17A        1.0000    4.2690   -1.9090 hc        1 2Y2      0.040200
     67 H18         0.7870    4.7980    2.2120 hc        1 2Y2      0.040700
     68 H18A        2.2120    3.7250    1.9160 hc        1 2Y2      0.040700
     69 H19         3.6210    4.1380   -0.2660 hc        1 2Y2      0.040700
     70 H19A        3.0930    5.4720   -1.3670 hc        1 2Y2      0.040700
     71 H20         1.1610    5.9830    0.0800 hc        1 2Y2      0.039700
     72 H20A        2.6810    5.9920    1.0610 hc        1 2Y2      0.039700
     73 H21        -1.1880   -1.3840   -0.7590 h1        1 2Y2      0.089700
     74 HO3        -1.1120    0.4360   -2.9140 ho        1 2Y2      0.399000
     75 H22        -2.1750    1.2900   -0.0170 hc        1 2Y2      0.069700
     76 H22A       -2.9310    0.8580   -1.5960 hc        1 2Y2      0.069700
     77 H23        -3.5450   -1.4200   -0.5870 hc        1 2Y2      0.079700
     78 H24        -1.7680   -1.0560    1.3480 hc        1 2Y2      0.087700
     79 H24A       -3.0250    0.0030    2.1180 hc        1 2Y2      0.087700
     80 H26        -4.4690   -3.8750    2.8390 ha        1 2Y2      0.165500
     81 H28A      -12.5300   -1.1900   -1.3050 h1        1 2Y2      0.053450
     82 H29       -10.1870   -1.0120   -1.8560 h1        1 2Y2      0.042700
     83 H29A      -10.2840   -2.1450   -0.4290 h1        1 2Y2      0.042700
     84 H30        -9.1860    1.7200    0.6600 h1        1 2Y2      0.042700
     85 H30A       -9.4470    1.5450   -1.1360 h1        1 2Y2      0.042700
     86 H31       -11.4570    2.5590   -0.2760 h1        1 2Y2      0.053450
     87 H31A      -11.5600    1.3860    1.1370 h1        1 2Y2      0.053450
     88 H32        -8.0270   -1.7190   -0.1940 h1        1 2Y2      0.037700
     89 H32A       -7.7990   -0.2750   -1.2790 h1        1 2Y2      0.037700
     90 H33        -7.5120   -0.1760    1.8270 h1        1 2Y2      0.067200
     91 H33A       -7.0990    1.1450    0.6290 h1        1 2Y2      0.067200
     92 HN6        -5.6510   -1.4330    0.9620 hn        1 2Y2      0.319500
     93 H28       -12.2210   -0.9560    0.4930 h1        1 2Y2      0.053450
@<TRIPOS>BOND
     1    1    2 2   
     2    1    9 1   
     3    2    3 1   
     4    2   10 1   
     5    3    4 1   
     6    3   46 1   
     7    4    5 ar  
     8    4    9 ar  
     9    5    6 ar  
    10    5   47 1   
    11    6    7 ar  
    12    6   48 1   
    13    7    8 ar  
    14    7   49 1   
    15    8    9 ar  
    16    8   50 1   
    17   10   11 2   
    18   10   12 1   
    19   12   13 1   
    20   12   51 1   
    21   13   14 1   
    22   13   17 1   
    23   13   52 1   
    24   14   15 1   
    25   14   53 1   
    26   14   54 1   
    27   15   16 1   
    28   16   55 1   
    29   16   56 1   
    30   16   57 1   
    31   17   18 2   
    32   17   19 1   
    33   19   20 1   
    34   19   58 1   
    35   20   21 1   
    36   20   28 1   
    37   20   59 1   
    38   21   22 1   
    39   21   60 1   
    40   21   61 1   
    41   22   23 1   
    42   22   24 1   
    43   22   62 1   
    44   23   25 1   
    45   23   63 1   
    46   23   64 1   
    47   24   26 1   
    48   24   65 1   
    49   24   66 1   
    50   25   27 1   
    51   25   67 1   
    52   25   68 1   
    53   26   27 1   
    54   26   69 1   
    55   26   70 1   
    56   27   71 1   
    57   27   72 1   
    58   28   29 1   
    59   28   30 1   
    60   28   73 1   
    61   29   74 1   
    62   30   31 1   
    63   30   75 1   
    64   30   76 1   
    65   31   32 1   
    66   31   35 1   
    67   31   77 1   
    68   32   33 1   
    69   32   78 1   
    70   32   79 1   
    71   33   34 3   
    72   34   80 1   
    73   35   36 2   
    74   35   45 1   
    75   37   38 1   
    76   37   42 1   
    77   38   39 1   
    78   38   81 1   
    79   38   93 1   
    80   39   40 1   
    81   39   82 1   
    82   39   83 1   
    83   40   41 1   
    84   40   43 1   
    85   41   42 1   
    86   41   84 1   
    87   41   85 1   
    88   42   86 1   
    89   42   87 1   
    90   43   44 1   
    91   43   88 1   
    92   43   89 1   
    93   44   45 1   
    94   44   90 1   
    95   44   91 1   
    96   45   92 1   
@<TRIPOS>SUBSTRUCTURE
     1 2Y2         1 TEMP              0 ****  ****    0 ROOT
