@<TRIPOS>MOLECULE
2Y2
   93    88     1     0     0
SMALL
bcc


@<TRIPOS>ATOM
      1 N2         -0.0470   -4.3420    5.8880 ne        1 2Y2     -0.429900
      2 C1          0.8230   -3.4520    6.4740 c1        1 2Y2      0.398800
      3 N1          1.2100   -3.9660    7.6690 nf        1 2Y2     -0.429900
      4 C7          0.5840   -5.1750    7.8310 ch        1 2Y2      0.003000
      5 C6          0.6180   -6.1220    8.8720 c1        1 2Y2     -0.143000
      6 C5         -0.1350   -7.2830    8.7760 c1        1 2Y2     -0.024000
      7 C4         -0.9270   -7.5100    7.6460 c1        1 2Y2     -0.143000
      8 C3         -0.9590   -6.5790    6.6260 c1        1 2Y2     -0.024000
      9 C2         -0.1930   -5.4000    6.7230 cg        1 2Y2      0.003000
     10 C8          1.4210   -2.2220    5.7900 c1        1 2Y2      0.619500
     11 O1          2.1740   -1.5090    6.3940 o         1 2Y2     -0.622500
     12 N3          0.9530   -1.8280    4.4800 n3        1 2Y2     -0.376400
     13 C9          1.6580   -0.8300    3.7440 c3        1 2Y2     -0.014000
     14 C10         2.7560   -1.4740    2.9620 c3        1 2Y2     -0.035300
     15 S1          4.0410   -2.0710    4.1020 ss        1 2Y2     -0.268200
     16 C11         5.4690   -2.6430    3.1530 c3        1 2Y2     -0.052000
     17 C12         0.6820   -0.1140    2.7780 c         1 2Y2      0.636100
     18 O2         -0.4550   -0.5140    2.6610 o         1 2Y2     -0.623100
     19 N4          1.1230    1.0510    2.0260 n         1 2Y2     -0.545900
     20 C13         0.2290    1.6830    1.1050 c3        1 2Y2      0.077700
     21 C14         0.2460    3.1850    1.3340 c3        1 2Y2     -0.091400
     22 C15        -0.3440    3.4610    2.4960 c3        1 2Y2     -0.059700
     23 C16         0.5160    4.5250    3.3760 c3        1 2Y2     -0.075900
     24 C17        -1.6330    4.3740    2.3120 c3        1 2Y2     -0.075900
     25 C18         0.8150    5.7980    2.6330 c3        1 2Y2     -0.074900
     26 C19        -1.3480    5.6640    1.5560 c3        1 2Y2     -0.074900
     27 C20        -0.0240    5.9660    1.5670 c3        1 2Y2     -0.076400
     28 C21         0.6740    1.3750   -0.3340 c3        1 2Y2      0.107100
     29 O3          1.2840    2.5040   -0.8820 oh        1 2Y2     -0.595800
     30 C22        -0.5110    1.0030   -1.1550 c3        1 2Y2     -0.106400
     31 C23        -0.0490    0.1860   -2.3790 c3        1 2Y2     -0.128700
     32 C24         0.0540   -1.2760   -1.9990 c3        1 2Y2     -0.008300
     33 C25         1.4150   -1.8090   -2.3900 c1        1 2Y2     -0.147100
     34 C26         2.5090   -2.2430   -2.7050 c1        1 2Y2     -0.213000
     35 C27        -1.0540    0.3460   -3.5010 c         1 2Y2      0.658100
     36 O4         -2.2250    0.4660   -3.2470 o         1 2Y2     -0.616100
     37 O5         -3.3810    0.4000  -10.8750 os        1 2Y2     -0.415600
     38 C28        -2.7980   -0.8130  -10.4210 c3        1 2Y2      0.126400
     39 C29        -1.7670   -0.5830   -9.3180 c3        1 2Y2      0.133300
     40 N5         -2.2830    0.2140   -8.2500 n3        1 2Y2     -0.725600
     41 C30        -2.8750    1.4340   -8.7090 c3        1 2Y2      0.133300
     42 C31        -3.8960    1.2050   -9.7990 c3        1 2Y2      0.126400
     43 C32        -1.2150    0.5130   -7.3100 c3        1 2Y2      0.147800
     44 C33        -1.4640   -0.2390   -5.9840 c3        1 2Y2      0.089000
     45 N6         -0.6000    0.3610   -4.8990 n         1 2Y2     -0.571900
     46 HN1         1.7950   -3.5700    8.2690 DU        1 2Y2      0.195250
     47 H6          1.0740   -5.9160    9.6920 DU        1 2Y2      0.195250
     48 H5         -0.1130   -7.9310    9.4870 ha        1 2Y2      0.086000
     49 H4         -1.4580   -8.3260    7.5780 DU        1 2Y2      0.195250
     50 H3         -1.5070   -6.7380    5.8420 ha        1 2Y2      0.086000
     51 HN3         0.1780   -2.1430    4.1730 hn        1 2Y2      0.306700
     52 H9          2.0400   -0.1740    4.3660 h1        1 2Y2      0.103700
     53 H10         3.1410   -0.8270    2.3520 h1        1 2Y2      0.099200
     54 H10A        2.3940   -2.2320    2.4510 h1        1 2Y2      0.099200
     55 H11         6.1270   -3.0290    3.7570 h1        1 2Y2      0.067367
     56 H11A        5.1860   -3.3110    2.5170 h1        1 2Y2      0.067367
     57 H11B        5.8630   -1.8960    2.6810 h1        1 2Y2      0.067367
     58 HN4         1.9350    1.4400    2.2170 hn        1 2Y2      0.338500
     59 H13        -0.6980    1.3360    1.2480 h1        1 2Y2      0.075700
     60 H14         1.1820    3.5040    1.3560 hc        1 2Y2      0.053700
     61 H14A       -0.2370    3.6350    0.6030 hc        1 2Y2      0.053700
     62 H15        -0.5480    2.6510    3.0060 hc        1 2Y2      0.054700
     63 H16         0.0070    4.7480    4.1980 hc        1 2Y2      0.043200
     64 H16A        1.3730    4.1010    3.6390 hc        1 2Y2      0.043200
     65 H17        -2.3360    3.8490    1.8070 hc        1 2Y2      0.043200
     66 H17A       -1.9910    4.6040    3.2100 hc        1 2Y2      0.043200
     67 H18         0.7090    6.5550    3.2450 hc        1 2Y2      0.038450
     68 H18A        1.7540    5.7710    2.3060 hc        1 2Y2      0.038450
     69 H19        -1.6500    5.5600    0.6090 hc        1 2Y2      0.038450
     70 H19A       -1.8470    6.3980    1.9740 hc        1 2Y2      0.038450
     71 H20         0.0370    6.9140    1.3250 hc        1 2Y2      0.037200
     72 H20A        0.3720    5.4640    0.8340 hc        1 2Y2      0.037200
     73 H21         1.3040    0.6380   -0.3270 h1        1 2Y2      0.093700
     74 HO3         1.0750    2.5620   -1.7590 ho        1 2Y2      0.399000
     75 H22        -1.1110    0.4750   -0.6270 hc        1 2Y2      0.070700
     76 H22A       -0.9620    1.8030   -1.4510 hc        1 2Y2      0.070700
     77 H23         0.8140    0.5040   -2.6720 hc        1 2Y2      0.090700
     78 H24        -0.0680   -1.3720   -1.0190 hc        1 2Y2      0.079200
     79 H24A       -0.6490   -1.7890   -2.4710 hc        1 2Y2      0.079200
     80 H26         3.3910   -2.5940   -2.9600 DU        1 2Y2      0.195250
     81 H28        -3.5040   -1.3950  -10.0780 h1        1 2Y2      0.054450
     82 H28A       -2.3550   -1.2630  -11.1870 h1        1 2Y2      0.054450
     83 H29        -0.9810   -0.1270   -9.7060 h1        1 2Y2      0.040700
     84 H29A       -1.4870   -1.4490   -8.9600 h1        1 2Y2      0.040700
     85 H30        -3.3230    1.8930   -7.9360 h1        1 2Y2      0.040700
     86 H30A       -2.1680    2.0160   -9.0570 h1        1 2Y2      0.040700
     87 H31        -4.1850    2.0970  -10.1680 h1        1 2Y2      0.054450
     88 H31A       -4.6690    0.7580   -9.4130 h1        1 2Y2      0.054450
     89 H32        -0.3840    0.2360   -7.6790 h1        1 2Y2      0.036200
     90 H32A       -1.1910    1.4670   -7.1410 h1        1 2Y2      0.036200
     91 H33        -1.2320   -1.1940   -6.1000 h1        1 2Y2      0.067700
     92 H33A       -2.4120   -0.1600   -5.7320 h1        1 2Y2      0.067700
     93 HN6         0.2440    0.7390   -5.1190 hn        1 2Y2      0.316500
@<TRIPOS>BOND
     1    1    2 2   
     2    1    9 1   
     3    2    3 2   
     4    3    4 1   
     5    4    9 3   
     6    5    6 3   
     7    6   48 1   
     8    7    8 3   
     9    8   50 1   
    10   10   11 2   
    11   10   12 2   
    12   12   13 1   
    13   12   51 1   
    14   13   14 1   
    15   13   17 1   
    16   13   52 1   
    17   14   15 1   
    18   14   53 1   
    19   14   54 1   
    20   15   16 1   
    21   16   55 1   
    22   16   56 1   
    23   16   57 1   
    24   17   18 2   
    25   17   19 1   
    26   19   20 1   
    27   19   58 1   
    28   20   21 1   
    29   20   28 1   
    30   20   59 1   
    31   21   22 1   
    32   21   60 1   
    33   21   61 1   
    34   22   23 1   
    35   22   24 1   
    36   22   62 1   
    37   23   25 1   
    38   23   63 1   
    39   23   64 1   
    40   24   26 1   
    41   24   65 1   
    42   24   66 1   
    43   25   27 1   
    44   25   67 1   
    45   25   68 1   
    46   26   27 1   
    47   26   69 1   
    48   26   70 1   
    49   27   71 1   
    50   27   72 1   
    51   28   29 1   
    52   28   30 1   
    53   28   73 1   
    54   29   74 1   
    55   30   31 1   
    56   30   75 1   
    57   30   76 1   
    58   31   32 1   
    59   31   35 1   
    60   31   77 1   
    61   32   33 1   
    62   32   78 1   
    63   32   79 1   
    64   33   34 3   
    65   35   36 2   
    66   35   45 1   
    67   37   38 1   
    68   37   42 1   
    69   38   39 1   
    70   38   81 1   
    71   38   82 1   
    72   39   40 1   
    73   39   83 1   
    74   39   84 1   
    75   40   41 1   
    76   40   43 1   
    77   41   42 1   
    78   41   85 1   
    79   41   86 1   
    80   42   87 1   
    81   42   88 1   
    82   43   44 1   
    83   43   89 1   
    84   43   90 1   
    85   44   45 1   
    86   44   91 1   
    87   44   92 1   
    88   45   93 1   
@<TRIPOS>SUBSTRUCTURE
     1 2Y2         1 TEMP              0 ****  ****    0 ROOT
