@<TRIPOS>MOLECULE
2Y4
   94    96     1     0     0
SMALL
bcc


@<TRIPOS>ATOM
      1 O1          6.3610    2.8680   -0.8050 os        1 2Y4     -0.411600
      2 C4          5.7360    2.6890    0.4600 c3        1 2Y4      0.091900
      3 C3          5.9260    1.2580    0.9840 c3        1 2Y4      0.027500
      4 N1          5.5280    0.2300    0.0350 n         1 2Y4     -0.408800
      5 C2          6.0980    0.4800   -1.2840 c3        1 2Y4      0.027500
      6 C1          5.9180    1.9220   -1.7750 c3        1 2Y4      0.091900
      7 C5          4.1750   -0.2280    0.0340 c         1 2Y4      0.733100
      8 O2          3.5940   -0.5080   -1.0460 o         1 2Y4     -0.653100
      9 N2          3.4960   -0.4050    1.2490 n         1 2Y4     -0.541900
     10 C6          2.2350   -1.1170    1.2470 c3        1 2Y4      0.039700
     11 C7          1.0610   -0.1140    1.0850 c         1 2Y4      0.654100
     12 O3          0.2460    0.0840    2.0110 o         1 2Y4     -0.639100
     13 C8          1.9980   -1.9210    2.5370 c3        1 2Y4     -0.046100
     14 C9          3.0850   -2.9030    2.7870 ca        1 2Y4     -0.097300
     15 C10         3.1300   -4.1060    2.0710 ca        1 2Y4     -0.127000
     16 C11         4.0650   -2.6410    3.7510 ca        1 2Y4     -0.127000
     17 C12         4.1440   -5.0310    2.3150 ca        1 2Y4     -0.124500
     18 C13         5.0770   -3.5680    3.9940 ca        1 2Y4     -0.124500
     19 C14         5.1190   -4.7630    3.2760 ca        1 2Y4     -0.124000
     20 N3          0.9560    0.5190   -0.1280 n         1 2Y4     -0.554900
     21 C15         0.0330    1.6020   -0.3610 c3        1 2Y4      0.038700
     22 C16        -1.3570    1.0760   -0.8130 c         1 2Y4      0.647100
     23 O4         -1.7810    1.2710   -1.9670 o         1 2Y4     -0.602100
     24 C17         0.5310    2.5960   -1.4190 c3        1 2Y4     -0.084400
     25 C18         1.8040    3.2920   -0.9910 c3        1 2Y4     -0.081400
     26 C19         2.1890    4.3770   -1.9760 c3        1 2Y4     -0.081400
     27 C20         3.4660    5.0630   -1.5650 c3        1 2Y4     -0.099100
     28 F1         -3.7480    2.1740    2.0310 f         1 2Y4     -0.227800
     29 F2         -4.5730    2.3550    0.0570 f         1 2Y4     -0.227800
     30 N4         -2.1000    0.4300    0.1520 n         1 2Y4     -0.569900
     31 N5         -6.3930    2.7290    2.7000 n         1 2Y4     -0.551900
     32 O5         -4.0430   -0.4940    2.2240 oh        1 2Y4     -0.577800
     33 O6         -7.0560    1.0200    1.3070 o         1 2Y4     -0.582100
     34 C21        -3.3760   -0.1780   -0.1370 c3        1 2Y4      0.068700
     35 C22        -3.2960   -1.6990   -0.3740 c3        1 2Y4     -0.096400
     36 C23        -4.3750   -2.1760   -1.3340 c3        1 2Y4     -0.062700
     37 C24        -4.6200   -3.6680   -1.1450 c3        1 2Y4     -0.075900
     38 C25        -3.9890   -1.8910   -2.7800 c3        1 2Y4     -0.075900
     39 C26        -5.6790   -4.1740   -2.1020 c3        1 2Y4     -0.076400
     40 C27        -5.0540   -2.3880   -3.7350 c3        1 2Y4     -0.076400
     41 C28        -5.3200   -3.8660   -3.5410 c3        1 2Y4     -0.077400
     42 C29        -4.4090    0.0770    0.9910 c3        1 2Y4      0.101100
     43 C30        -4.6990    1.6060    1.2050 c3        1 2Y4      0.308600
     44 C31        -6.1660    1.7570    1.7640 c         1 2Y4      0.628100
     45 C32        -7.6730    2.9430    3.2980 c3        1 2Y4      0.077300
     46 H4          6.2550    3.4210    1.1330 h1        1 2Y4      0.062200
     47 H4A         4.6450    2.9460    0.3790 h1        1 2Y4      0.062200
     48 H3          5.3850    1.1590    1.9620 h1        1 2Y4      0.075200
     49 H3A         7.0250    1.0910    1.1790 h1        1 2Y4      0.075200
     50 H2          5.6460   -0.2230   -2.0370 h1        1 2Y4      0.075200
     51 H2A         7.1990    0.2560   -1.1920 h1        1 2Y4      0.075200
     52 H1          4.8420    2.1230   -2.0290 h1        1 2Y4      0.062200
     53 H1A         6.5680    2.1150   -2.6670 h1        1 2Y4      0.062200
     54 HN2         4.0320   -0.4960    2.0850 hn        1 2Y4      0.318500
     55 H6          2.2020   -1.8330    0.3670 h1        1 2Y4      0.091700
     56 H8          1.8890   -1.2160    3.4040 hc        1 2Y4      0.079200
     57 H8A         1.0140   -2.4510    2.4210 hc        1 2Y4      0.079200
     58 H10         2.3600   -4.3200    1.3150 ha        1 2Y4      0.132500
     59 H11         4.0290   -1.7050    4.3290 ha        1 2Y4      0.132500
     60 H12         4.1730   -5.9730    1.7490 ha        1 2Y4      0.135000
     61 H13         5.8420   -3.3570    4.7560 ha        1 2Y4      0.135000
     62 H14         5.9180   -5.4940    3.4690 ha        1 2Y4      0.135000
     63 HN3         1.6080    0.3060   -0.8540 hn        1 2Y4      0.349500
     64 H15        -0.1160    2.1600    0.6150 h1        1 2Y4      0.084700
     65 H17         0.6840    2.0700   -2.3980 hc        1 2Y4      0.070700
     66 H17A       -0.2850    3.3500   -1.5790 hc        1 2Y4      0.070700
     67 H18         1.6670    3.7420    0.0280 hc        1 2Y4      0.038700
     68 H18A        2.6440    2.5510   -0.9160 hc        1 2Y4      0.038700
     69 H19         2.3130    3.9260   -2.9960 hc        1 2Y4      0.043200
     70 H19A        1.3610    5.1300   -2.0460 hc        1 2Y4      0.043200
     71 H20         3.3480    5.5520   -0.5680 hc        1 2Y4      0.035367
     72 H20A        4.3090    4.3290   -1.4960 hc        1 2Y4      0.035367
     73 H20B        3.7430    5.8460   -2.3110 hc        1 2Y4      0.035367
     74 HN4        -1.6620    0.1910    1.0140 hn        1 2Y4      0.330500
     75 HO5        -3.2340   -0.0650    2.5350 ho        1 2Y4      0.415000
     76 H21        -3.7800    0.3170   -1.0760 h1        1 2Y4      0.106700
     77 H22        -2.2920   -1.9730   -0.7920 hc        1 2Y4      0.055700
     78 H22A       -3.4040   -2.2250    0.6120 hc        1 2Y4      0.055700
     79 H23        -5.3370   -1.6330   -1.1100 hc        1 2Y4      0.051700
     80 H24        -3.6610   -4.2250   -1.3130 hc        1 2Y4      0.043700
     81 H24A       -4.9450   -3.8640   -0.0900 hc        1 2Y4      0.043700
     82 H25        -3.8350   -0.7890   -2.9220 hc        1 2Y4      0.043700
     83 H25A       -3.0140   -2.3970   -3.0110 hc        1 2Y4      0.043700
     84 H26        -5.7990   -5.2820   -1.9730 hc        1 2Y4      0.039950
     85 H26A       -6.6640   -3.6980   -1.8530 hc        1 2Y4      0.039950
     86 H27        -6.0020   -1.8120   -3.5710 hc        1 2Y4      0.039950
     87 H27A       -4.7240   -2.2000   -4.7900 hc        1 2Y4      0.039950
     88 H28        -4.4070   -4.4510   -3.8310 hc        1 2Y4      0.037700
     89 H28A       -6.1550   -4.1910   -4.2140 hc        1 2Y4      0.037700
     90 H29        -5.3780   -0.4320    0.7110 h1        1 2Y4      0.132700
     91 H32        -8.4510    2.3150    2.7870 h1        1 2Y4      0.049700
     92 H32A       -7.6440    2.6710    4.3880 h1        1 2Y4      0.049700
     93 H51        -7.9550    4.0270    3.2040 h1        1 2Y4      0.049700
     94 H48        -5.6240    3.2560    3.0430 hn        1 2Y4      0.325500
@<TRIPOS>BOND
     1    1    2 1   
     2    1    6 1   
     3    2    3 1   
     4    2   46 1   
     5    2   47 1   
     6    3    4 1   
     7    3   48 1   
     8    3   49 1   
     9    4    5 1   
    10    4    7 1   
    11    5    6 1   
    12    5   50 1   
    13    5   51 1   
    14    6   52 1   
    15    6   53 1   
    16    7    8 2   
    17    7    9 1   
    18    9   10 1   
    19    9   54 1   
    20   10   11 1   
    21   10   13 1   
    22   10   55 1   
    23   11   12 2   
    24   11   20 1   
    25   13   14 1   
    26   13   56 1   
    27   13   57 1   
    28   14   15 ar  
    29   14   16 ar  
    30   15   17 ar  
    31   15   58 1   
    32   16   18 ar  
    33   16   59 1   
    34   17   19 ar  
    35   17   60 1   
    36   18   19 ar  
    37   18   61 1   
    38   19   62 1   
    39   20   21 1   
    40   20   63 1   
    41   21   22 1   
    42   21   24 1   
    43   21   64 1   
    44   22   23 2   
    45   22   30 1   
    46   24   25 1   
    47   24   65 1   
    48   24   66 1   
    49   25   26 1   
    50   25   67 1   
    51   25   68 1   
    52   26   27 1   
    53   26   69 1   
    54   26   70 1   
    55   27   71 1   
    56   27   72 1   
    57   27   73 1   
    58   28   43 1   
    59   29   43 1   
    60   30   34 1   
    61   30   74 1   
    62   31   44 1   
    63   31   45 1   
    64   31   94 1   
    65   32   42 1   
    66   32   75 1   
    67   33   44 2   
    68   34   35 1   
    69   34   42 1   
    70   34   76 1   
    71   35   36 1   
    72   35   77 1   
    73   35   78 1   
    74   36   37 1   
    75   36   38 1   
    76   36   79 1   
    77   37   39 1   
    78   37   80 1   
    79   37   81 1   
    80   38   40 1   
    81   38   82 1   
    82   38   83 1   
    83   39   41 1   
    84   39   84 1   
    85   39   85 1   
    86   40   41 1   
    87   40   86 1   
    88   40   87 1   
    89   41   88 1   
    90   41   89 1   
    91   42   43 1   
    92   42   90 1   
    93   43   44 1   
    94   45   91 1   
    95   45   92 1   
    96   45   93 1   
@<TRIPOS>SUBSTRUCTURE
     1 2Y4         1 TEMP              0 ****  ****    0 ROOT
