@<TRIPOS>MOLECULE
2Y4
   94    94     1     0     0
SMALL
bcc


@<TRIPOS>ATOM
      1 O1         -4.7260   -3.2550   -5.0790 os        1 2Y4     -0.266000
      2 C4         -4.4680   -2.0270   -5.7400 c3        1 2Y4     -0.029500
      3 C3         -4.8990   -0.8220   -4.9080 c3        1 2Y4     -0.073500
      4 N1         -4.3760   -0.8670   -3.5980 n         1 2Y4     -0.291000
      5 C2         -4.6240   -2.0710   -2.9370 c3        1 2Y4     -0.073500
      6 C1         -4.1960   -3.2840   -3.7640 c3        1 2Y4     -0.029500
      7 C5         -3.6330    0.2630   -2.9770 c2        1 2Y4      0.372000
      8 O2         -3.4510    1.2830   -3.5990 o         1 2Y4     -0.400000
      9 N2         -3.1430    0.1480   -1.6080 n         1 2Y4     -0.331000
     10 C6         -2.8300    1.3070   -0.8800 c3        1 2Y4      0.012000
     11 C7         -1.4010    1.7530   -1.2150 c2        1 2Y4      0.268000
     12 O3         -0.8490    1.3320   -2.2200 o         1 2Y4     -0.387000
     13 C8         -2.9350    1.0180    0.6290 c3        1 2Y4     -0.124000
     14 C9         -4.4330    1.0880    1.0710 c2        1 2Y4     -0.069000
     15 C10        -5.1210    2.2940    0.9940 c2        1 2Y4     -0.123000
     16 C11        -5.0170   -0.0070    1.7060 c1        1 2Y4     -0.119000
     17 C12        -6.3900    2.4050    1.5500 c1        1 2Y4     -0.125000
     18 C13        -6.2880    0.1080    2.2620 c1        1 2Y4     -0.128500
     19 C14        -6.9720    1.3050    2.1860 c1        1 2Y4     -0.128500
     20 N3         -0.7270    2.7430   -0.3740 n         1 2Y4     -0.362000
     21 C15         0.6750    2.8820   -0.4360 c3        1 2Y4      0.012000
     22 C16         1.3330    1.9070    0.5720 c2        1 2Y4      0.287000
     23 O4          1.0410    1.9710    1.7730 o         1 2Y4     -0.380000
     24 C17         1.0640    4.3120   -0.0810 c3        1 2Y4     -0.164000
     25 C18         1.7330    5.0020   -1.3140 c3        1 2Y4     -0.163000
     26 C19         2.5460    6.2650   -0.8270 c3        1 2Y4     -0.158000
     27 C20         3.4300    6.7660   -1.9650 c3        1 2Y4     -0.211000
     28 F1          5.5060    0.8290    1.2920 f         1 2Y4     -0.152500
     29 F2          4.5450   -0.5400    2.7840 f         1 2Y4     -0.152500
     30 N4          2.3210    0.9390    0.1160 n         1 2Y4     -0.369000
     31 N5          7.0070   -1.7320    2.4850 n         1 2Y4     -0.350000
     32 O5          4.3000   -0.2910   -0.7580 oh        1 2Y4     -0.311000
     33 O6          6.4290   -1.9490    0.2780 o         1 2Y4     -0.370000
     34 C21         2.6290   -0.2010    0.9300 c3        1 2Y4      0.034000
     35 C22         1.5480   -1.2270    0.7810 c3        1 2Y4     -0.172000
     36 C23         1.7630   -2.2160    1.6200 c3        1 2Y4     -0.101000
     37 C24         1.3320   -3.6280    0.9970 c3        1 2Y4     -0.155500
     38 C25         0.6810   -2.2180    2.8550 c3        1 2Y4     -0.155500
     39 C26         1.5360   -4.7950    1.9600 c3        1 2Y4     -0.153500
     40 C27         0.8840   -3.3580    3.8160 c3        1 2Y4     -0.153500
     41 C28         1.6330   -4.3700    3.2510 c3        1 2Y4     -0.154000
     42 C29         3.9590   -0.8000    0.4850 c3        1 2Y4      0.008000
     43 C30         5.0610   -0.4470    1.5140 c3        1 2Y4      0.214000
     44 C31         6.2080   -1.4110    1.3700 c2        1 2Y4      0.262000
     45 C32         7.8390   -2.9260    2.4570 c3        1 2Y4     -0.081000
     46 H4         -4.9500   -2.0170   -6.5840 h1        1 2Y4      0.098250
     47 H4A        -3.5010   -1.9620   -5.9220 h1        1 2Y4      0.098250
     48 H3         -5.8780   -0.8080   -4.8580 h1        1 2Y4      0.097500
     49 H3A        -4.5990   -0.0180   -5.3400 h1        1 2Y4      0.097500
     50 H2         -4.1170   -2.0770   -2.0670 h1        1 2Y4      0.097500
     51 H2A        -5.5990   -2.1390   -2.7430 h1        1 2Y4      0.097500
     52 H1         -4.5020   -4.0780   -3.3260 h1        1 2Y4      0.098250
     53 H1A        -3.2040   -3.3080   -3.8150 h1        1 2Y4      0.098250
     54 HN2        -2.9730   -0.6690   -1.2550 hn        1 2Y4      0.226000
     55 H6         -3.4930    2.0570   -1.1330 h1        1 2Y4      0.145000
     56 H8         -2.5870    0.1380    0.8140 hc        1 2Y4      0.105500
     57 H8A        -2.4180    1.6830    1.1240 hc        1 2Y4      0.105500
     58 H10        -4.7080    3.0730    0.5440 ha        1 2Y4      0.130000
     59 H11        -4.5310   -0.8640    1.7600 ha        1 2Y4      0.131000
     60 H12        -6.8680    3.2420    1.4960 ha        1 2Y4      0.133000
     61 H13        -6.6960   -0.6600    2.7080 ha        1 2Y4      0.131500
     62 H14        -7.8430    1.3810    2.5670 ha        1 2Y4      0.131500
     63 HN3        -1.2070    3.2800    0.1610 hn        1 2Y4      0.240000
     64 H15         0.9940    2.6670   -1.3730 h1        1 2Y4      0.131000
     65 H17         1.7290    4.2980    0.7050 hc        1 2Y4      0.107000
     66 H17A        0.2470    4.8230    0.1830 hc        1 2Y4      0.107000
     67 H18         2.3580    4.3530   -1.7680 hc        1 2Y4      0.084500
     68 H18A        1.0150    5.2960   -1.9740 hc        1 2Y4      0.084500
     69 H19         1.9190    6.9780   -0.5590 hc        1 2Y4      0.080000
     70 H19A        3.1090    6.0170   -0.0580 hc        1 2Y4      0.080000
     71 H20         2.8540    7.1110   -2.7060 hc        1 2Y4      0.073333
     72 H20A        4.0300    7.5140   -1.6270 hc        1 2Y4      0.073333
     73 H20B        3.9750    6.0380   -2.2930 hc        1 2Y4      0.073333
     74 HN4         2.6680    1.0060   -0.7120 hn        1 2Y4      0.265000
     75 HO5         4.4650   -0.9750   -1.3300 ho        1 2Y4      0.235000
     76 H21         2.6920    0.0830    1.8970 h1        1 2Y4      0.134000
     77 H22         1.5480   -1.5830   -0.1730 hc        1 2Y4      0.097000
     78 H22A        0.7080   -0.8320    0.9700 hc        1 2Y4      0.097000
     79 H23         2.6740   -2.2270    1.9400 hc        1 2Y4      0.081000
     80 H24         0.3590   -3.5840    0.7420 hc        1 2Y4      0.084500
     81 H24A        1.8570   -3.7890    0.2010 hc        1 2Y4      0.084500
     82 H25         0.7580   -1.3760    3.3450 hc        1 2Y4      0.084500
     83 H25A       -0.1900   -2.2810    2.4940 hc        1 2Y4      0.084500
     84 H26         2.3350   -5.2600    1.7230 hc        1 2Y4      0.077500
     85 H26A        0.7590   -5.4200    1.8800 hc        1 2Y4      0.077500
     86 H27         1.3550   -3.0180    4.6280 hc        1 2Y4      0.077500
     87 H27A       -0.0220   -3.7260    4.0880 hc        1 2Y4      0.077500
     88 H28         1.4750   -5.1660    3.8090 hc        1 2Y4      0.076500
     89 H28A        2.5720   -4.1140    3.3810 hc        1 2Y4      0.076500
     90 H29         3.8720   -1.7610    0.4250 h1        1 2Y4      0.116000
     91 H32         7.2650   -3.7300    2.2780 h1        1 2Y4      0.091667
     92 H32A        8.5030   -2.8390    1.7530 h1        1 2Y4      0.091667
     93 H51         8.2860   -3.0310    3.3080 h1        1 2Y4      0.091667
     94 H48         6.9820   -1.2030    3.2400 hn        1 2Y4      0.243000
@<TRIPOS>BOND
     1    1    2 1   
     2    1    6 1   
     3    2    3 1   
     4    2   46 1   
     5    2   47 1   
     6    3    4 1   
     7    3   48 1   
     8    3   49 1   
     9    4    5 1   
    10    4    7 1   
    11    5    6 1   
    12    5   50 1   
    13    5   51 1   
    14    6   52 1   
    15    6   53 1   
    16    7    8 1   
    17    7    9 1   
    18    9   10 1   
    19    9   54 1   
    20   10   11 1   
    21   10   13 1   
    22   10   55 1   
    23   11   12 1   
    24   11   20 1   
    25   13   14 1   
    26   13   56 1   
    27   13   57 1   
    28   14   15 1   
    29   14   16 1   
    30   15   17 1   
    31   15   58 1   
    32   16   59 1   
    33   17   60 1   
    34   18   19 1   
    35   18   61 1   
    36   19   62 1   
    37   20   21 1   
    38   20   63 1   
    39   21   22 1   
    40   21   24 1   
    41   21   64 1   
    42   22   23 1   
    43   22   30 1   
    44   24   25 1   
    45   24   65 1   
    46   24   66 1   
    47   25   26 1   
    48   25   67 1   
    49   25   68 1   
    50   26   27 1   
    51   26   69 1   
    52   26   70 1   
    53   27   71 1   
    54   27   72 1   
    55   27   73 1   
    56   28   43 1   
    57   29   43 1   
    58   30   34 1   
    59   30   74 1   
    60   31   44 1   
    61   31   45 1   
    62   31   94 1   
    63   32   42 1   
    64   32   75 1   
    65   33   44 1   
    66   34   35 1   
    67   34   42 1   
    68   34   76 1   
    69   35   36 1   
    70   35   77 1   
    71   35   78 1   
    72   36   37 1   
    73   36   38 1   
    74   36   79 1   
    75   37   39 1   
    76   37   80 1   
    77   37   81 1   
    78   38   40 1   
    79   38   82 1   
    80   38   83 1   
    81   39   41 1   
    82   39   84 1   
    83   39   85 1   
    84   40   41 1   
    85   40   86 1   
    86   40   87 1   
    87   41   88 1   
    88   41   89 1   
    89   42   43 1   
    90   42   90 1   
    91   43   44 1   
    92   45   91 1   
    93   45   92 1   
    94   45   93 1   
@<TRIPOS>SUBSTRUCTURE
     1 2Y4         1 TEMP              0 ****  ****    0 ROOT
