@<TRIPOS>MOLECULE
2Y6
   60    64     1     0     0
SMALL
bcc


@<TRIPOS>ATOM
      1 CL1         1.3840    0.7120    0.8080 cl        1 2Y6     -0.071400
      2 C23         2.7650   -0.1410    0.3010 ca        1 2Y6      0.037400
      3 C22         3.7060   -0.5090    1.2700 ca        1 2Y6     -0.113000
      4 C21         4.8600   -1.1930    0.8950 ca        1 2Y6     -0.082000
      5 C20         5.0810   -1.5110   -0.4470 ca        1 2Y6     -0.112000
      6 C19         4.1410   -1.1540   -1.4090 ca        1 2Y6     -0.112000
      7 C18         2.9690   -0.4740   -1.0480 ca        1 2Y6     -0.159300
      8 C17         1.9450   -0.1380   -2.0960 c3        1 2Y6      0.299000
      9 N2          2.5220    0.8980   -3.0560 n4        1 2Y6     -0.732900
     10 S2          1.2920    2.0900   -3.7790 s6        1 2Y6      1.440900
     11 O2          1.5530    1.9680   -5.1310 o         1 2Y6     -0.568300
     12 O3          0.0670    1.7390   -3.2460 o         1 2Y6     -0.568300
     13 C24         1.9160    3.4580   -3.1410 cx        1 2Y6     -0.554900
     14 C25         1.0580    4.4940   -2.4040 cx        1 2Y6     -0.016400
     15 C26         2.1120    3.7720   -1.6610 cx        1 2Y6     -0.016400
     16 C8          1.4520   -1.3120   -2.8500 cc        1 2Y6     -0.276600
     17 C7          0.1460   -1.4140   -3.2910 cd        1 2Y6     -0.060200
     18 S1          2.3620   -2.6860   -3.2250 ss        1 2Y6      0.174500
     19 C5          1.0860   -3.4600   -3.9930 ca        1 2Y6     -0.044100
     20 C6         -0.0880   -2.6530   -3.9660 ca        1 2Y6     -0.111800
     21 C3         -1.2780   -3.1020   -4.5660 ca        1 2Y6     -0.066000
     22 C2         -1.2820   -4.3330   -5.1920 ca        1 2Y6     -0.131000
     23 C1         -0.1260   -5.1380   -5.2190 ca        1 2Y6     -0.074000
     24 C4          1.0560   -4.7290   -4.6110 cp        1 2Y6     -0.111500
     25 C9          2.2540   -5.5880   -4.6110 cp        1 2Y6      0.442800
     26 C13         2.1270   -6.9780   -4.8260 ca        1 2Y6     -0.194300
     27 N1          3.4630   -5.0000   -4.3870 nb        1 2Y6     -0.700000
     28 C10         4.5510   -5.7850   -4.4030 ca        1 2Y6      0.403200
     29 C11         4.5170   -7.1730   -4.6300 ca        1 2Y6     -0.233300
     30 C12         3.2750   -7.7800   -4.8420 ca        1 2Y6     -0.024300
     31 C14         3.1870   -9.2680   -5.0770 c3        1 2Y6      0.192100
     32 C15         3.9710   -9.6550   -6.3300 c3        1 2Y6     -0.122100
     33 C16         3.7160  -10.0300   -3.8640 c3        1 2Y6     -0.122100
     34 O1          1.8040   -9.5820   -5.2690 oh        1 2Y6     -0.603800
     35 H1          3.5300   -0.2610    2.3300 ha        1 2Y6      0.170000
     36 H2          5.5970   -1.4860    1.6610 ha        1 2Y6      0.163000
     37 H3          5.9930   -2.0530   -0.7430 ha        1 2Y6      0.160000
     38 H4          4.3180   -1.4270   -2.4640 ha        1 2Y6      0.146000
     39 H5          1.0520    0.3710   -1.6040 hx        1 2Y6      0.123700
     40 H6          3.2610    1.3960   -2.5600 hn        1 2Y6      0.454800
     41 H7          2.6930    3.9270   -3.8010 h1        1 2Y6      0.179700
     42 H8         -0.0080    4.2420   -2.2290 hc        1 2Y6      0.111200
     43 H9          1.2020    5.5570   -2.6780 hc        1 2Y6      0.111200
     44 H10         1.8260    2.9960   -0.9220 hc        1 2Y6      0.111200
     45 H11         3.0410    4.3010   -1.3700 hc        1 2Y6      0.111200
     46 H12        -0.6340   -0.6550   -3.1520 ha        1 2Y6      0.174000
     47 H13        -2.1800   -2.4730   -4.5330 ha        1 2Y6      0.148000
     48 H14        -2.1980   -4.7040   -5.6790 ha        1 2Y6      0.151000
     49 H15        -0.1770   -6.1060   -5.7440 ha        1 2Y6      0.154000
     50 H16         1.1390   -7.4430   -4.9680 ha        1 2Y6      0.173000
     51 H17         5.5130   -5.2710   -4.2240 h4        1 2Y6      0.021100
     52 H18         5.4480   -7.7550   -4.6360 ha        1 2Y6      0.152000
     53 H19         5.0420   -9.3610   -6.2220 hc        1 2Y6      0.051367
     54 H20         3.9150  -10.7590   -6.4860 hc        1 2Y6      0.051367
     55 H21         3.5390   -9.1460   -7.2240 hc        1 2Y6      0.051367
     56 H22         3.6710  -11.1290   -4.0570 hc        1 2Y6      0.051367
     57 H23         4.7730   -9.7430   -3.6580 hc        1 2Y6      0.051367
     58 H24         3.0920   -9.8000   -2.9670 hc        1 2Y6      0.051367
     59 H25         1.7560  -10.5340   -5.4160 ho        1 2Y6      0.414000
     60 H221        2.9710    0.3860   -3.8210 hn        1 2Y6      0.454800
@<TRIPOS>BOND
     1    1    2 1   
     2    2    3 ar  
     3    2    7 ar  
     4    3    4 ar  
     5    3   35 1   
     6    4    5 ar  
     7    4   36 1   
     8    5    6 ar  
     9    5   37 1   
    10    6    7 ar  
    11    6   38 1   
    12    7    8 1   
    13    8    9 1   
    14    8   16 1   
    15    8   39 1   
    16    9   10 1   
    17    9   40 1   
    18    9   60 1   
    19   10   11 2   
    20   10   12 2   
    21   10   13 1   
    22   13   14 1   
    23   13   15 1   
    24   13   41 1   
    25   14   15 1   
    26   14   42 1   
    27   14   43 1   
    28   15   44 1   
    29   15   45 1   
    30   16   17 2   
    31   16   18 1   
    32   17   20 1   
    33   17   46 1   
    34   18   19 1   
    35   19   20 ar  
    36   19   24 ar  
    37   20   21 ar  
    38   21   22 ar  
    39   21   47 1   
    40   22   23 ar  
    41   22   48 1   
    42   23   24 ar  
    43   23   49 1   
    44   24   25 1   
    45   25   26 ar  
    46   25   27 ar  
    47   26   30 ar  
    48   26   50 1   
    49   27   28 ar  
    50   28   29 ar  
    51   28   51 1   
    52   29   30 ar  
    53   29   52 1   
    54   30   31 1   
    55   31   32 1   
    56   31   33 1   
    57   31   34 1   
    58   32   53 1   
    59   32   54 1   
    60   32   55 1   
    61   33   56 1   
    62   33   57 1   
    63   33   58 1   
    64   34   59 1   
@<TRIPOS>SUBSTRUCTURE
     1 2Y6         1 TEMP              0 ****  ****    0 ROOT
