@<TRIPOS>MOLECULE
2Y6
   60    64     1     0     0
SMALL
bcc


@<TRIPOS>ATOM
      1 Cl1         1.3790    0.7330    0.7910 cl        1 2Y6     -0.071400
      2 C23         2.7580   -0.1320    0.2960 ca        1 2Y6      0.037400
      3 C22         3.6910   -0.5020    1.2740 ca        1 2Y6     -0.113000
      4 C21         4.8430   -1.1950    0.9090 ca        1 2Y6     -0.082000
      5 C20         5.0700   -1.5190   -0.4300 ca        1 2Y6     -0.112000
      6 C19         4.1390   -1.1600   -1.4000 ca        1 2Y6     -0.112000
      7 C18         2.9690   -0.4710   -1.0490 ca        1 2Y6     -0.159300
      8 C17         1.9550   -0.1320   -2.1060 c3        1 2Y6      0.299000
      9 N2          2.5440    0.8960   -3.0660 ny        1 2Y6     -0.732900
     10 S2          1.3270    2.0920   -3.8020 s6        1 2Y6      1.440900
     11 O2          1.5950    1.9640   -5.1520 o         1 2Y6     -0.568300
     12 O3          0.0960    1.7520   -3.2750 o         1 2Y6     -0.568300
     13 C24         1.9560    3.4590   -3.1650 cx        1 2Y6     -0.554900
     14 C25         1.1010    4.5040   -2.4380 cx        1 2Y6     -0.016400
     15 C26         2.1450    3.7790   -1.6850 cx        1 2Y6     -0.016400
     16 C8          1.4580   -1.3060   -2.8580 cc        1 2Y6     -0.276600
     17 C7          0.1540   -1.4020   -3.3070 cd        1 2Y6     -0.060200
     18 S1          2.3630   -2.6870   -3.2240 ss        1 2Y6      0.174500
     19 C5          1.0860   -3.4560   -3.9970 ca        1 2Y6     -0.044100
     20 C6         -0.0830   -2.6420   -3.9800 ca        1 2Y6     -0.111800
     21 C3         -1.2720   -3.0860   -4.5850 ca        1 2Y6     -0.066000
     22 C2         -1.2800   -4.3190   -5.2060 ca        1 2Y6     -0.131000
     23 C1         -0.1280   -5.1300   -5.2250 ca        1 2Y6     -0.074000
     24 C4          1.0530   -4.7270   -4.6120 cp        1 2Y6     -0.111500
     25 C9          2.2460   -5.5920   -4.6020 cp        1 2Y6      0.442800
     26 C13         2.1120   -6.9810   -4.8140 ca        1 2Y6     -0.194300
     27 N1          3.4570   -5.0100   -4.3730 nb        1 2Y6     -0.700000
     28 C10         4.5400   -5.8010   -4.3810 ca        1 2Y6      0.403200
     29 C11         4.5000   -7.1890   -4.6050 ca        1 2Y6     -0.233300
     30 C12         3.2560   -7.7910   -4.8220 ca        1 2Y6     -0.024300
     31 C14         3.1610   -9.2780   -5.0540 c3        1 2Y6      0.192100
     32 C15         3.9490   -9.6730   -6.3010 c3        1 2Y6     -0.122100
     33 C16         3.6780  -10.0400   -3.8360 c3        1 2Y6     -0.122100
     34 O1          1.7760   -9.5850   -5.2530 oh        1 2Y6     -0.603800
     35 H1          3.5090   -0.2490    2.3320 ha        1 2Y6      0.170000
     36 H2          5.5720   -1.4890    1.6810 ha        1 2Y6      0.163000
     37 H3          5.9810   -2.0680   -0.7190 ha        1 2Y6      0.160000
     38 H4          4.3220   -1.4380   -2.4530 ha        1 2Y6      0.146000
     39 H5          1.0620    0.3850   -1.6220 hx        1 2Y6      0.123700
     40 H6          2.9960    0.3780   -3.8260 hn        1 2Y6      0.454800
     41 H7          2.7400    3.9210   -3.8220 h1        1 2Y6      0.179700
     42 H8          0.0320    4.2600   -2.2690 hc        1 2Y6      0.111200
     43 H9          1.2530    5.5660   -2.7160 hc        1 2Y6      0.111200
     44 H10         3.0750    4.3030   -1.3910 hc        1 2Y6      0.111200
     45 H11         1.8490    3.0080   -0.9450 hc        1 2Y6      0.111200
     46 H12        -0.6210   -0.6380   -3.1750 ha        1 2Y6      0.174000
     47 H13        -2.1700   -2.4510   -4.5580 ha        1 2Y6      0.148000
     48 H14        -2.1950   -4.6850   -5.6980 ha        1 2Y6      0.151000
     49 H15        -0.1820   -6.0990   -5.7470 ha        1 2Y6      0.154000
     50 H16         1.1220   -7.4410   -4.9600 ha        1 2Y6      0.173000
     51 H17         5.5050   -5.2930   -4.1990 h4        1 2Y6      0.021100
     52 H18         5.4280   -7.7770   -4.6050 ha        1 2Y6      0.152000
     53 H19         5.0210   -9.3850   -6.1890 hc        1 2Y6      0.051367
     54 H20         3.5250   -9.1640   -7.1990 hc        1 2Y6      0.051367
     55 H21         3.8880  -10.7770   -6.4550 hc        1 2Y6      0.051367
     56 H22         3.0520   -9.8040   -2.9430 hc        1 2Y6      0.051367
     57 H23         3.6290  -11.1390   -4.0260 hc        1 2Y6      0.051367
     58 H24         4.7370   -9.7590   -3.6250 hc        1 2Y6      0.051367
     59 H25         1.7240  -10.5370   -5.3960 ho        1 2Y6      0.414000
     60 H221        3.2840    1.3910   -2.5670 hn        1 2Y6      0.454800
@<TRIPOS>BOND
     1    1    2 1   
     2    2    3 ar  
     3    2    7 ar  
     4    3    4 ar  
     5    3   35 1   
     6    4    5 ar  
     7    4   36 1   
     8    5    6 ar  
     9    5   37 1   
    10    6    7 ar  
    11    6   38 1   
    12    7    8 1   
    13    8    9 1   
    14    8   16 1   
    15    8   39 1   
    16    9   10 1   
    17    9   40 1   
    18    9   60 1   
    19   10   11 2   
    20   10   12 2   
    21   10   13 1   
    22   13   14 1   
    23   13   15 1   
    24   13   41 1   
    25   14   15 1   
    26   14   42 1   
    27   14   43 1   
    28   15   44 1   
    29   15   45 1   
    30   16   17 2   
    31   16   18 1   
    32   17   20 1   
    33   17   46 1   
    34   18   19 1   
    35   19   20 ar  
    36   19   24 ar  
    37   20   21 ar  
    38   21   22 ar  
    39   21   47 1   
    40   22   23 ar  
    41   22   48 1   
    42   23   24 ar  
    43   23   49 1   
    44   24   25 1   
    45   25   26 ar  
    46   25   27 ar  
    47   26   30 ar  
    48   26   50 1   
    49   27   28 ar  
    50   28   29 ar  
    51   28   51 1   
    52   29   30 ar  
    53   29   52 1   
    54   30   31 1   
    55   31   32 1   
    56   31   33 1   
    57   31   34 1   
    58   32   53 1   
    59   32   54 1   
    60   32   55 1   
    61   33   56 1   
    62   33   57 1   
    63   33   58 1   
    64   34   59 1   
@<TRIPOS>SUBSTRUCTURE
     1 2Y6         1 TEMP              0 ****  ****    0 ROOT
