@<TRIPOS>MOLECULE
2Y7
   51    53     1     0     0
SMALL
bcc


@<TRIPOS>ATOM
      1 FAF         0.5440    0.9310   -0.2680 f         1 2Y7     -0.241300
      2 CAK         1.6100    0.0870   -0.0320 c3        1 2Y7      0.156900
      3 CAL         2.0590    0.1330    1.4360 c3        1 2Y7      0.088400
      4 OAQ         1.4870   -1.0290    2.0450 os        1 2Y7     -0.306900
      5 CAY         1.9000   -1.2900    3.3370 ca        1 2Y7      0.100100
      6 CAJ         2.5680   -0.3850    4.1550 ca        1 2Y7     -0.169000
      7 CAX         1.5700   -2.5830    3.8290 ca        1 2Y7      0.119100
      8 OAP         0.9190   -3.4070    2.9360 os        1 2Y7     -0.302900
      9 CAA         0.5110   -4.6740    3.4410 c3        1 2Y7      0.109700
     10 CAH         1.9150   -2.9310    5.1350 ca        1 2Y7     -0.188000
     11 CAG         2.5870   -2.0170    5.9500 ca        1 2Y7     -0.076000
     12 CAW         2.9150   -0.7480    5.4700 ca        1 2Y7     -0.135500
     13 CBA         3.6040    0.2170    6.3120 cc        1 2Y7      0.456900
     14 NAO         4.3620   -0.0890    7.3700 nd        1 2Y7     -0.613000
     15 SAS         3.4750    1.9100    6.0020 ss        1 2Y7     -0.095300
     16 CAV         4.4630    2.2600    7.3120 cc        1 2Y7     -0.166700
     17 CAB         4.8360    3.6190    7.7080 c3        1 2Y7     -0.027800
     18 CBB         4.8550    1.0770    7.9490 cd        1 2Y7      0.334600
     19 CBC         5.7380    1.0390    9.1460 c3        1 2Y7     -0.021900
     20 CAC         6.8050   -0.0230    9.0600 c3        1 2Y7     -0.082100
     21 SAR         4.6000    0.7360   10.4990 ss        1 2Y7     -0.203400
     22 C2          5.3330    1.3930   11.9220 ca        1 2Y7      0.793300
     23 N3          6.5740    1.9450   11.8330 nb        1 2Y7     -0.797500
     24 N1          4.5570    1.2840   13.0390 nb        1 2Y7     -0.797500
     25 C6          5.1000    1.7730   14.2040 ca        1 2Y7      0.704200
     26 NAD         4.4050    1.6000   15.3980 nh        1 2Y7     -0.937500
     27 C5          6.3830    2.3920   14.2230 ca        1 2Y7     -0.500600
     28 C4          7.0960    2.4680   12.9950 ca        1 2Y7      0.704200
     29 NAE         8.3170    3.1400   12.9490 nh        1 2Y7     -0.937500
     30 H1          2.4700    0.4060   -0.6830 h1        1 2Y7      0.061200
     31 H2          1.3090   -0.9640   -0.3010 h1        1 2Y7      0.061200
     32 H3          1.6730    1.0540    1.9440 h1        1 2Y7      0.053200
     33 H4          3.1760    0.0900    1.5060 h1        1 2Y7      0.053200
     34 H5          2.8320    0.6170    3.7820 ha        1 2Y7      0.142000
     35 H6         -0.0180   -5.1390    2.5710 h1        1 2Y7      0.046367
     36 H7          1.3990   -5.2860    3.7350 h1        1 2Y7      0.046367
     37 H8         -0.1840   -4.5510    4.3060 h1        1 2Y7      0.046367
     38 H9          1.6660   -3.9250    5.5340 ha        1 2Y7      0.145000
     39 H10         2.8570   -2.3080    6.9780 ha        1 2Y7      0.159000
     40 H11         4.4960    3.8280    8.7560 hc        1 2Y7      0.054700
     41 H12         4.3750    4.3810    7.0310 hc        1 2Y7      0.054700
     42 H13         5.9490    3.7470    7.6740 hc        1 2Y7      0.054700
     43 H14         6.2240    2.0450    9.2600 h1        1 2Y7      0.097700
     44 H15         6.3560   -1.0460    9.0690 hc        1 2Y7      0.050700
     45 H16         7.5060    0.0680    9.9250 hc        1 2Y7      0.050700
     46 H17         7.3880    0.0970    8.1140 hc        1 2Y7      0.050700
     47 H18         4.6250    2.2500   16.1150 hn        1 2Y7      0.415050
     48 H19         3.4500    1.3290   15.3370 hn        1 2Y7      0.415050
     49 H20         6.8040    2.7940   15.1490 ha        1 2Y7      0.146000
     50 H21         8.8800    3.0040   12.1400 hn        1 2Y7      0.415050
     51 H22         8.8120    3.1680   13.8100 hn        1 2Y7      0.415050
@<TRIPOS>BOND
     1    1    2 1   
     2    2    3 1   
     3    2   30 1   
     4    2   31 1   
     5    3    4 1   
     6    3   32 1   
     7    3   33 1   
     8    4    5 1   
     9    5    6 ar  
    10    5    7 ar  
    11    6   12 ar  
    12    6   34 1   
    13    7    8 1   
    14    7   10 ar  
    15    8    9 1   
    16    9   35 1   
    17    9   36 1   
    18    9   37 1   
    19   10   11 ar  
    20   10   38 1   
    21   11   12 ar  
    22   11   39 1   
    23   12   13 1   
    24   13   14 2   
    25   13   15 1   
    26   14   18 1   
    27   15   16 1   
    28   16   17 1   
    29   16   18 2   
    30   17   40 1   
    31   17   41 1   
    32   17   42 1   
    33   18   19 1   
    34   19   20 1   
    35   19   21 1   
    36   19   43 1   
    37   20   44 1   
    38   20   45 1   
    39   20   46 1   
    40   21   22 1   
    41   22   23 ar  
    42   22   24 ar  
    43   23   28 ar  
    44   24   25 ar  
    45   25   26 1   
    46   25   27 ar  
    47   26   47 1   
    48   26   48 1   
    49   27   28 ar  
    50   27   49 1   
    51   28   29 1   
    52   29   50 1   
    53   29   51 1   
@<TRIPOS>SUBSTRUCTURE
     1 2Y7         1 TEMP              0 ****  ****    0 ROOT
