@<TRIPOS>MOLECULE
2Y7
   51    53     1     0     0
SMALL
bcc


@<TRIPOS>ATOM
      1 FAF         0.5930    0.8940   -0.3090 f         1 2Y7     -0.241300
      2 CAK         1.6340    0.0280   -0.0470 c3        1 2Y7      0.156900
      3 CAL         2.0740    0.0940    1.4230 c3        1 2Y7      0.088400
      4 OAQ         1.4700   -1.0420    2.0510 os        1 2Y7     -0.306900
      5 CAY         1.8730   -1.2900    3.3490 ca        1 2Y7      0.100100
      6 CAJ         2.5530   -0.3830    4.1550 ca        1 2Y7     -0.169000
      7 CAX         1.5180   -2.5690    3.8610 ca        1 2Y7      0.119100
      8 OAP         0.8570   -3.3960    2.9780 os        1 2Y7     -0.302900
      9 CAA         0.4240   -4.6470    3.5020 c3        1 2Y7      0.109700
     10 CAH         1.8510   -2.9010    5.1740 ca        1 2Y7     -0.188000
     11 CAG         2.5340   -1.9860    5.9770 ca        1 2Y7     -0.076000
     12 CAW         2.8860   -0.7300    5.4780 ca        1 2Y7     -0.135500
     13 CBA         3.5880    0.2360    6.3080 cc        1 2Y7      0.456900
     14 NAO         4.3390   -0.0660    7.3720 nd        1 2Y7     -0.612000
     15 SAS         3.4860    1.9260    5.9720 ss        1 2Y7     -0.094300
     16 CAV         4.4760    2.2800    7.2800 cc        1 2Y7     -0.167700
     17 CAB         4.8680    3.6390    7.6580 c3        1 2Y7     -0.027800
     18 CBB         4.8490    1.1000    7.9350 cd        1 2Y7      0.334600
     19 CBC         5.7290    1.0660    9.1340 c3        1 2Y7     -0.020900
     20 CAC         6.7710   -0.0210    9.0730 c3        1 2Y7     -0.084100
     21 SAR         4.5780    0.8230   10.4890 ss        1 2Y7     -0.205400
     22 C2          5.3480    1.4320   11.9140 ca        1 2Y7      0.794300
     23 N3          6.5850    1.9910   11.8120 nb        1 2Y7     -0.797500
     24 N1          4.6000    1.2860   13.0450 nb        1 2Y7     -0.797500
     25 C6          5.1550    1.7720   14.2060 ca        1 2Y7      0.704700
     26 NAD         4.4020    1.7480   15.3780 nh        1 2Y7     -0.938500
     27 C5          6.4540    2.3560   14.2190 ca        1 2Y7     -0.501600
     28 C4          7.1520    2.4410   12.9830 ca        1 2Y7      0.704700
     29 NAE         8.4570    2.9280   12.9620 nh        1 2Y7     -0.938500
     30 H1          2.5070    0.3110   -0.6980 h1        1 2Y7      0.061200
     31 H2          1.3080   -1.0200   -0.2960 h1        1 2Y7      0.061200
     32 H3          1.7050    1.0340    1.9090 h1        1 2Y7      0.053200
     33 H4          3.1890    0.0260    1.5030 h1        1 2Y7      0.053200
     34 H5          2.8350    0.6080    3.7680 ha        1 2Y7      0.142000
     35 H6         -0.1100   -5.1160    2.6360 h1        1 2Y7      0.046367
     36 H7          1.2990   -5.2690    3.8100 h1        1 2Y7      0.046367
     37 H8         -0.2740   -4.4970    4.3610 h1        1 2Y7      0.046367
     38 H9          1.5830   -3.8840    5.5870 ha        1 2Y7      0.145000
     39 H10         2.7950   -2.2650    7.0110 ha        1 2Y7      0.159000
     40 H11         5.9830    3.7510    7.6210 hc        1 2Y7      0.054367
     41 H12         4.5310    3.8670    8.7020 hc        1 2Y7      0.054367
     42 H13         4.4170    4.3980    6.9700 hc        1 2Y7      0.054367
     43 H14         6.2380    2.0630    9.2280 h1        1 2Y7      0.095700
     44 H15         7.3590    0.0650    8.1260 hc        1 2Y7      0.051367
     45 H16         7.4730    0.0720    9.9370 hc        1 2Y7      0.051367
     46 H17         6.2990   -1.0330    9.1020 hc        1 2Y7      0.051367
     47 H18         4.9290    1.7490   16.2190 hn        1 2Y7      0.415550
     48 H19         3.5840    1.1820   15.3830 hn        1 2Y7      0.415550
     49 H20         6.9000    2.7250   15.1490 ha        1 2Y7      0.146000
     50 H21         8.6880    3.5470   13.7030 hn        1 2Y7      0.415550
     51 H22         8.8470    3.1540   12.0760 hn        1 2Y7      0.415550
@<TRIPOS>BOND
     1    1    2 1   
     2    2    3 1   
     3    2   30 1   
     4    2   31 1   
     5    3    4 1   
     6    3   32 1   
     7    3   33 1   
     8    4    5 1   
     9    5    6 ar  
    10    5    7 ar  
    11    6   12 ar  
    12    6   34 1   
    13    7    8 1   
    14    7   10 ar  
    15    8    9 1   
    16    9   35 1   
    17    9   36 1   
    18    9   37 1   
    19   10   11 ar  
    20   10   38 1   
    21   11   12 ar  
    22   11   39 1   
    23   12   13 1   
    24   13   14 2   
    25   13   15 1   
    26   14   18 1   
    27   15   16 1   
    28   16   17 1   
    29   16   18 2   
    30   17   40 1   
    31   17   41 1   
    32   17   42 1   
    33   18   19 1   
    34   19   20 1   
    35   19   21 1   
    36   19   43 1   
    37   20   44 1   
    38   20   45 1   
    39   20   46 1   
    40   21   22 1   
    41   22   23 ar  
    42   22   24 ar  
    43   23   28 ar  
    44   24   25 ar  
    45   25   26 1   
    46   25   27 ar  
    47   26   47 1   
    48   26   48 1   
    49   27   28 ar  
    50   27   49 1   
    51   28   29 1   
    52   29   50 1   
    53   29   51 1   
@<TRIPOS>SUBSTRUCTURE
     1 2Y7         1 TEMP              0 ****  ****    0 ROOT
