@<TRIPOS>MOLECULE
2Y7
   51    53     1     0     0
SMALL
bcc


@<TRIPOS>ATOM
      1 FAF         0.5780    0.8920   -0.3010 f         1 2Y7     -0.241300
      2 CAK         1.6260    0.0320   -0.0450 c3        1 2Y7      0.156900
      3 CAL         2.0680    0.0950    1.4250 c3        1 2Y7      0.088400
      4 OAQ         1.4730   -1.0470    2.0500 os        1 2Y7     -0.306900
      5 CAY         1.8760   -1.2940    3.3480 ca        1 2Y7      0.100100
      6 CAJ         2.5550   -0.3870    4.1540 ca        1 2Y7     -0.169000
      7 CAX         1.5230   -2.5740    3.8590 ca        1 2Y7      0.119100
      8 OAP         0.8640   -3.4010    2.9760 os        1 2Y7     -0.302900
      9 CAA         0.4330   -4.6540    3.4990 c3        1 2Y7      0.109700
     10 CAH         1.8570   -2.9060    5.1710 ca        1 2Y7     -0.188000
     11 CAG         2.5400   -1.9910    5.9750 ca        1 2Y7     -0.076000
     12 CAW         2.8900   -0.7340    5.4760 ca        1 2Y7     -0.135500
     13 CBA         3.5910    0.2320    6.3070 cc        1 2Y7      0.456900
     14 NAO         4.3410   -0.0680    7.3720 nd        1 2Y7     -0.612000
     15 SAS         3.4890    1.9230    5.9700 ss        1 2Y7     -0.094300
     16 CAV         4.4770    2.2780    7.2780 cc        1 2Y7     -0.167700
     17 CAB         4.8690    3.6370    7.6560 c3        1 2Y7     -0.027800
     18 CBB         4.8490    1.0980    7.9350 cd        1 2Y7      0.334600
     19 CBC         5.7290    1.0650    9.1350 c3        1 2Y7     -0.020900
     20 CAC         6.7700   -0.0230    9.0760 c3        1 2Y7     -0.084100
     21 SAR         4.5760    0.8240   10.4880 ss        1 2Y7     -0.205400
     22 C2          5.3450    1.4350   11.9130 ca        1 2Y7      0.794300
     23 N3          6.5820    1.9930   11.8120 nb        1 2Y7     -0.797500
     24 N1          4.5950    1.2920   13.0440 nb        1 2Y7     -0.797500
     25 C6          5.1490    1.7790   14.2050 ca        1 2Y7      0.704700
     26 NAD         4.3950    1.7570   15.3760 nv        1 2Y7     -0.938500
     27 C5          6.4490    2.3610   14.2190 ca        1 2Y7     -0.501600
     28 C4          7.1480    2.4440   12.9830 ca        1 2Y7      0.704700
     29 NAE         8.4540    2.9300   12.9630 nv        1 2Y7     -0.938500
     30 H1          1.3060   -1.0180   -0.2970 h1        1 2Y7      0.061200
     31 H2          2.4950    0.3220   -0.6960 h1        1 2Y7      0.061200
     32 H3          3.1840    0.0330    1.5020 h1        1 2Y7      0.053200
     33 H4          1.6960    1.0310    1.9150 h1        1 2Y7      0.053200
     34 H5          2.8360    0.6050    3.7680 ha        1 2Y7      0.142000
     35 H6         -0.2640   -4.5060    4.3590 h1        1 2Y7      0.046367
     36 H7         -0.1000   -5.1230    2.6330 h1        1 2Y7      0.046367
     37 H8          1.3100   -5.2740    3.8060 h1        1 2Y7      0.046367
     38 H9          1.5910   -3.8900    5.5850 ha        1 2Y7      0.145000
     39 H10         2.8020   -2.2700    7.0080 ha        1 2Y7      0.159000
     40 H11         4.5310    3.8650    8.7000 hc        1 2Y7      0.054367
     41 H12         4.4180    4.3950    6.9670 hc        1 2Y7      0.054367
     42 H13         5.9830    3.7490    7.6200 hc        1 2Y7      0.054367
     43 H14         6.2380    2.0620    9.2280 h1        1 2Y7      0.095700
     44 H15         7.4710    0.0710    9.9410 hc        1 2Y7      0.051367
     45 H16         7.3590    0.0620    8.1300 hc        1 2Y7      0.051367
     46 H17         6.2970   -1.0350    9.1070 hc        1 2Y7      0.051367
     47 H18         3.5770    1.1910   15.3810 hn        1 2Y7      0.415550
     48 H19         4.9220    1.7590   16.2180 hn        1 2Y7      0.415550
     49 H20         6.8940    2.7310   15.1480 ha        1 2Y7      0.146000
     50 H21         8.6850    3.5500   13.7040 hn        1 2Y7      0.415550
     51 H22         8.8450    3.1550   12.0770 hn        1 2Y7      0.415550
@<TRIPOS>BOND
     1    1    2 1   
     2    2    3 1   
     3    2   30 1   
     4    2   31 1   
     5    3    4 1   
     6    3   32 1   
     7    3   33 1   
     8    4    5 1   
     9    5    6 ar  
    10    5    7 ar  
    11    6   12 ar  
    12    6   34 1   
    13    7    8 1   
    14    7   10 ar  
    15    8    9 1   
    16    9   35 1   
    17    9   36 1   
    18    9   37 1   
    19   10   11 ar  
    20   10   38 1   
    21   11   12 ar  
    22   11   39 1   
    23   12   13 1   
    24   13   14 2   
    25   13   15 1   
    26   14   18 1   
    27   15   16 1   
    28   16   17 1   
    29   16   18 2   
    30   17   40 1   
    31   17   41 1   
    32   17   42 1   
    33   18   19 1   
    34   19   20 1   
    35   19   21 1   
    36   19   43 1   
    37   20   44 1   
    38   20   45 1   
    39   20   46 1   
    40   21   22 1   
    41   22   23 ar  
    42   22   24 ar  
    43   23   28 ar  
    44   24   25 ar  
    45   25   26 1   
    46   25   27 ar  
    47   26   47 1   
    48   26   48 1   
    49   27   28 ar  
    50   27   49 1   
    51   28   29 1   
    52   29   50 1   
    53   29   51 1   
@<TRIPOS>SUBSTRUCTURE
     1 2Y7         1 TEMP              0 ****  ****    0 ROOT
