@<TRIPOS>MOLECULE
2Y8
   51    53     1     0     0
SMALL
bcc


@<TRIPOS>ATOM
      1 FAF         0.1470    0.8250    0.0170 f         1 2Y8     -0.240300
      2 CAK         1.3690    0.1850    0.0490 c3        1 2Y8      0.157900
      3 CAL         1.9640    0.1620    1.4650 c3        1 2Y8      0.088400
      4 OAQ         1.6630   -1.1390    1.9800 os        1 2Y8     -0.306900
      5 CAY         1.9780   -1.3440    3.3090 ca        1 2Y8      0.103100
      6 CAJ         2.7150   -0.4670    4.0990 ca        1 2Y8     -0.172000
      7 CAX         1.5070   -2.5700    3.8590 ca        1 2Y8      0.119100
      8 OAP         0.7950   -3.3690    2.9910 os        1 2Y8     -0.301900
      9 CAA         0.2860   -4.5820    3.5380 c3        1 2Y8      0.109700
     10 CAH         1.7880   -2.8800    5.1890 ca        1 2Y8     -0.188000
     11 CAG         2.5260   -1.9930    5.9760 ca        1 2Y8     -0.076000
     12 CAW         2.9920   -0.7910    5.4400 ca        1 2Y8     -0.134500
     13 CBA         3.7710    0.1370    6.2450 cc        1 2Y8      0.460900
     14 NAO         3.7930    0.1670    7.5810 nd        1 2Y8     -0.613000
     15 SAS         4.7850    1.3190    5.4970 ss        1 2Y8     -0.101300
     16 CAV         5.2710    1.8990    6.9940 cc        1 2Y8     -0.166700
     17 CAB         6.2150    3.0040    7.1690 c3        1 2Y8     -0.026800
     18 CBB         4.6520    1.1720    8.0170 cd        1 2Y8      0.335600
     19 CBC         4.8670    1.4390    9.4650 c3        1 2Y8     -0.019900
     20 CAC         3.5920    1.4080   10.2680 c3        1 2Y8     -0.084100
     21 SAR         6.0090    0.1470    9.9610 ss        1 2Y8     -0.205400
     22 C2          6.8370    0.7260   11.3660 ca        1 2Y8      0.794300
     23 N3          6.5610    1.9750   11.8310 nb        1 2Y8     -0.798000
     24 N1          7.7260   -0.1690   11.8850 nb        1 2Y8     -0.798000
     25 C6          8.4280    0.2470   12.9920 ca        1 2Y8      0.704700
     26 NAD         9.4250   -0.5780   13.5110 nh        1 2Y8     -0.938500
     27 C5          8.2020    1.5260   13.5770 ca        1 2Y8     -0.501600
     28 C4          7.2380    2.3710   12.9620 ca        1 2Y8      0.704700
     29 NAE         6.9250    3.5960   13.5480 nh        1 2Y8     -0.938500
     30 H1          1.2380   -0.8690   -0.3220 h1        1 2Y8      0.060700
     31 H2          2.0780    0.7340   -0.6300 h1        1 2Y8      0.060700
     32 H3          1.5020    0.9540    2.1090 h1        1 2Y8      0.053200
     33 H4          3.0760    0.2930    1.4200 h1        1 2Y8      0.053200
     34 H5          3.0810    0.4850    3.6850 ha        1 2Y8      0.141000
     35 H6         -0.4150   -4.3730    4.3820 h1        1 2Y8      0.046700
     36 H7          1.1200   -5.2430    3.8750 h1        1 2Y8      0.046700
     37 H8         -0.2600   -5.0420    2.6750 h1        1 2Y8      0.046700
     38 H9          1.4310   -3.8210    5.6310 ha        1 2Y8      0.145000
     39 H10         2.7360   -2.2520    7.0260 ha        1 2Y8      0.160000
     40 H11         6.5690    3.3960    6.1830 hc        1 2Y8      0.054367
     41 H12         5.7330    3.8470    7.7290 hc        1 2Y8      0.054367
     42 H13         7.1090    2.6660    7.7540 hc        1 2Y8      0.054367
     43 H14         5.3490    2.4480    9.5710 h1        1 2Y8      0.095700
     44 H15         3.1510    0.3820   10.2850 hc        1 2Y8      0.051700
     45 H16         2.8410    2.1060    9.8220 hc        1 2Y8      0.051700
     46 H17         3.7930    1.7290   11.3190 hc        1 2Y8      0.051700
     47 H18         9.6340   -0.4350   14.4700 hn        1 2Y8      0.415550
     48 H19         9.4390   -1.5240   13.2030 hn        1 2Y8      0.415550
     49 H20         8.7500    1.8450   14.4690 ha        1 2Y8      0.146000
     50 H21         6.3990    4.2420   13.0050 hn        1 2Y8      0.415550
     51 H22         7.6420    3.9910   14.1100 hn        1 2Y8      0.415550
@<TRIPOS>BOND
     1    1    2 1   
     2    2    3 1   
     3    2   30 1   
     4    2   31 1   
     5    3    4 1   
     6    3   32 1   
     7    3   33 1   
     8    4    5 1   
     9    5    6 ar  
    10    5    7 ar  
    11    6   12 ar  
    12    6   34 1   
    13    7    8 1   
    14    7   10 ar  
    15    8    9 1   
    16    9   35 1   
    17    9   36 1   
    18    9   37 1   
    19   10   11 ar  
    20   10   38 1   
    21   11   12 ar  
    22   11   39 1   
    23   12   13 1   
    24   13   14 2   
    25   13   15 1   
    26   14   18 1   
    27   15   16 1   
    28   16   17 1   
    29   16   18 2   
    30   17   40 1   
    31   17   41 1   
    32   17   42 1   
    33   18   19 1   
    34   19   20 1   
    35   19   21 1   
    36   19   43 1   
    37   20   44 1   
    38   20   45 1   
    39   20   46 1   
    40   21   22 1   
    41   22   23 ar  
    42   22   24 ar  
    43   23   28 ar  
    44   24   25 ar  
    45   25   26 1   
    46   25   27 ar  
    47   26   47 1   
    48   26   48 1   
    49   27   28 ar  
    50   27   49 1   
    51   28   29 1   
    52   29   50 1   
    53   29   51 1   
@<TRIPOS>SUBSTRUCTURE
     1 2Y8         1 TEMP              0 ****  ****    0 ROOT
