@<TRIPOS>MOLECULE
2Y8
   51    53     1     0     0
SMALL
bcc


@<TRIPOS>ATOM
      1 FAF         0.2120    0.8310   -0.0280 f         1 2Y8     -0.240300
      2 CAK         1.4160    0.1600    0.0330 c3        1 2Y8      0.157900
      3 CAL         1.9890    0.1430    1.4580 c3        1 2Y8      0.088400
      4 OAQ         1.6480   -1.1410    1.9890 os        1 2Y8     -0.306900
      5 CAY         1.9640   -1.3440    3.3170 ca        1 2Y8      0.103100
      6 CAJ         2.7000   -0.4660    4.1060 ca        1 2Y8     -0.172000
      7 CAX         1.4900   -2.5680    3.8690 ca        1 2Y8      0.119100
      8 OAP         0.7780   -3.3690    3.0020 os        1 2Y8     -0.301900
      9 CAA         0.2620   -4.5770    3.5520 c3        1 2Y8      0.109700
     10 CAH         1.7680   -2.8750    5.2000 ca        1 2Y8     -0.188000
     11 CAG         2.5060   -1.9870    5.9870 ca        1 2Y8     -0.076000
     12 CAW         2.9750   -0.7870    5.4490 ca        1 2Y8     -0.134500
     13 CBA         3.7530    0.1420    6.2530 cc        1 2Y8      0.460900
     14 NAO         3.7830    0.1670    7.5890 nd        1 2Y8     -0.613000
     15 SAS         4.7560    1.3320    5.5030 ss        1 2Y8     -0.101300
     16 CAV         5.2480    1.9090    6.9990 cc        1 2Y8     -0.166700
     17 CAB         6.1870    3.0190    7.1730 c3        1 2Y8     -0.026800
     18 CBB         4.6380    1.1750    8.0230 cd        1 2Y8      0.335600
     19 CBC         4.8610    1.4380    9.4710 c3        1 2Y8     -0.019900
     20 CAC         3.5910    1.3950   10.2820 c3        1 2Y8     -0.084100
     21 SAR         6.0150    0.1520    9.9540 ss        1 2Y8     -0.205400
     22 C2          6.8490    0.7320   11.3550 ca        1 2Y8      0.794300
     23 N3          6.5670    1.9770   11.8270 nb        1 2Y8     -0.798000
     24 N1          7.7490   -0.1590   11.8640 nb        1 2Y8     -0.798000
     25 C6          8.4560    0.2580   12.9680 ca        1 2Y8      0.704700
     26 NAD         9.4620   -0.5610   13.4760 nv        1 2Y8     -0.938500
     27 C5          8.2250    1.5330   13.5600 ca        1 2Y8     -0.501600
     28 C4          7.2500    2.3730   12.9550 ca        1 2Y8      0.704700
     29 NAE         6.9320    3.5940   13.5470 nv        1 2Y8     -0.938500
     30 H1          2.1490    0.6780   -0.6450 h1        1 2Y8      0.060700
     31 H2          1.2610   -0.8970   -0.3230 h1        1 2Y8      0.060700
     32 H3          3.1050    0.2460    1.4280 h1        1 2Y8      0.053200
     33 H4          1.5380    0.9560    2.0830 h1        1 2Y8      0.053200
     34 H5          3.0680    0.4850    3.6920 ha        1 2Y8      0.141000
     35 H6         -0.4400   -4.3610    4.3930 h1        1 2Y8      0.046700
     36 H7         -0.2830   -5.0380    2.6900 h1        1 2Y8      0.046700
     37 H8          1.0930   -5.2410    3.8940 h1        1 2Y8      0.046700
     38 H9          1.4090   -3.8140    5.6440 ha        1 2Y8      0.145000
     39 H10         2.7140   -2.2440    7.0380 ha        1 2Y8      0.160000
     40 H11         7.0860    2.6840    7.7520 hc        1 2Y8      0.054367
     41 H12         5.7030    3.8570    7.7390 hc        1 2Y8      0.054367
     42 H13         6.5330    3.4170    6.1860 hc        1 2Y8      0.054367
     43 H14         5.3360    2.4500    9.5780 h1        1 2Y8      0.095700
     44 H15         3.7980    1.7140   11.3330 hc        1 2Y8      0.051700
     45 H16         3.1580    0.3660   10.2980 hc        1 2Y8      0.051700
     46 H17         2.8330    2.0900    9.8430 hc        1 2Y8      0.051700
     47 H18         9.4810   -1.5060   13.1650 hn        1 2Y8      0.415550
     48 H19         9.6780   -0.4200   14.4350 hn        1 2Y8      0.415550
     49 H20         8.7770    1.8530   14.4490 ha        1 2Y8      0.146000
     50 H21         7.6500    3.9920   14.1060 hn        1 2Y8      0.415550
     51 H22         6.3980    4.2370   13.0110 hn        1 2Y8      0.415550
@<TRIPOS>BOND
     1    1    2 1   
     2    2    3 1   
     3    2   30 1   
     4    2   31 1   
     5    3    4 1   
     6    3   32 1   
     7    3   33 1   
     8    4    5 1   
     9    5    6 ar  
    10    5    7 ar  
    11    6   12 ar  
    12    6   34 1   
    13    7    8 1   
    14    7   10 ar  
    15    8    9 1   
    16    9   35 1   
    17    9   36 1   
    18    9   37 1   
    19   10   11 ar  
    20   10   38 1   
    21   11   12 ar  
    22   11   39 1   
    23   12   13 1   
    24   13   14 2   
    25   13   15 1   
    26   14   18 1   
    27   15   16 1   
    28   16   17 1   
    29   16   18 2   
    30   17   40 1   
    31   17   41 1   
    32   17   42 1   
    33   18   19 1   
    34   19   20 1   
    35   19   21 1   
    36   19   43 1   
    37   20   44 1   
    38   20   45 1   
    39   20   46 1   
    40   21   22 1   
    41   22   23 ar  
    42   22   24 ar  
    43   23   28 ar  
    44   24   25 ar  
    45   25   26 1   
    46   25   27 ar  
    47   26   47 1   
    48   26   48 1   
    49   27   28 ar  
    50   27   49 1   
    51   28   29 1   
    52   29   50 1   
    53   29   51 1   
@<TRIPOS>SUBSTRUCTURE
     1 2Y8         1 TEMP              0 ****  ****    0 ROOT
