@<TRIPOS>MOLECULE
2Y8
   51    53     1     0     0
SMALL
bcc


@<TRIPOS>ATOM
      1 FAF         0.2490    0.8420   -0.0490 f         1 2Y8     -0.240300
      2 CAK         1.4440    0.1560    0.0220 c3        1 2Y8      0.157900
      3 CAL         2.0090    0.1410    1.4500 c3        1 2Y8      0.088400
      4 OAQ         1.6490   -1.1360    1.9870 os        1 2Y8     -0.306900
      5 CAY         1.9600   -1.3370    3.3170 ca        1 2Y8      0.103100
      6 CAJ         2.7000   -0.4620    4.1050 ca        1 2Y8     -0.172000
      7 CAX         1.4760   -2.5560    3.8700 ca        1 2Y8      0.119100
      8 OAP         0.7620   -3.3540    3.0030 os        1 2Y8     -0.302900
      9 CAA         0.2340   -4.5570    3.5550 c3        1 2Y8      0.109700
     10 CAH         1.7470   -2.8610    5.2030 ca        1 2Y8     -0.188000
     11 CAG         2.4890   -1.9760    5.9900 ca        1 2Y8     -0.076000
     12 CAW         2.9680   -0.7810    5.4500 ca        1 2Y8     -0.134500
     13 CBA         3.7510    0.1450    6.2530 cc        1 2Y8      0.460900
     14 NAO         3.7800    0.1710    7.5900 nd        1 2Y8     -0.613000
     15 SAS         4.7600    1.3300    5.5030 ss        1 2Y8     -0.101300
     16 CAV         5.2540    1.9050    7.0000 cc        1 2Y8     -0.166700
     17 CAB         6.1970    3.0110    7.1730 c3        1 2Y8     -0.026800
     18 CBB         4.6400    1.1750    8.0240 cd        1 2Y8      0.335600
     19 CBC         4.8620    1.4380    9.4710 c3        1 2Y8     -0.019900
     20 CAC         3.5920    1.4010   10.2820 c3        1 2Y8     -0.084100
     21 SAR         6.0100    0.1470    9.9560 ss        1 2Y8     -0.205400
     22 C2          6.8470    0.7240   11.3570 ca        1 2Y8      0.794300
     23 N3          6.5690    1.9710   11.8290 nb        1 2Y8     -0.798000
     24 N1          7.7420   -0.1700   11.8670 nb        1 2Y8     -0.798000
     25 C6          8.4510    0.2440   12.9710 ca        1 2Y8      0.704700
     26 NAD         9.4540   -0.5790   13.4790 nh        1 2Y8     -0.938500
     27 C5          8.2250    1.5200   13.5620 ca        1 2Y8     -0.501600
     28 C4          7.2530    2.3640   12.9560 ca        1 2Y8      0.704700
     29 NAE         6.9400    3.5870   13.5490 nh        1 2Y8     -0.938500
     30 H1          1.2790   -0.9010   -0.3290 h1        1 2Y8      0.060700
     31 H2          2.1870    0.6620   -0.6540 h1        1 2Y8      0.060700
     32 H3          1.5640    0.9630    2.0680 h1        1 2Y8      0.053200
     33 H4          3.1260    0.2310    1.4270 h1        1 2Y8      0.053200
     34 H5          3.0760    0.4850    3.6890 ha        1 2Y8      0.141000
     35 H6          1.0580   -5.2260    3.9020 h1        1 2Y8      0.046700
     36 H7         -0.3120   -5.0160    2.6920 h1        1 2Y8      0.046700
     37 H8         -0.4690   -4.3320    4.3930 h1        1 2Y8      0.046700
     38 H9          1.3800   -3.7970    5.6490 ha        1 2Y8      0.145000
     39 H10         2.6920   -2.2320    7.0420 ha        1 2Y8      0.160000
     40 H11         6.5460    3.4060    6.1870 hc        1 2Y8      0.054367
     41 H12         5.7170    3.8520    7.7380 hc        1 2Y8      0.054367
     42 H13         7.0940    2.6720    7.7530 hc        1 2Y8      0.054367
     43 H14         5.3420    2.4480    9.5780 h1        1 2Y8      0.095700
     44 H15         3.1540    0.3740   10.2980 hc        1 2Y8      0.051700
     45 H16         2.8370    2.0990    9.8420 hc        1 2Y8      0.051700
     46 H17         3.7990    1.7190   11.3330 hc        1 2Y8      0.051700
     47 H18         9.4690   -1.5240   13.1680 hn        1 2Y8      0.415550
     48 H19         9.6690   -0.4390   14.4380 hn        1 2Y8      0.415550
     49 H20         8.7780    1.8390   14.4520 ha        1 2Y8      0.146000
     50 H21         7.6600    3.9820   14.1070 hn        1 2Y8      0.415550
     51 H22         6.4090    4.2320   13.0120 hn        1 2Y8      0.415550
@<TRIPOS>BOND
     1    1    2 1   
     2    2    3 1   
     3    2   30 1   
     4    2   31 1   
     5    3    4 1   
     6    3   32 1   
     7    3   33 1   
     8    4    5 1   
     9    5    6 ar  
    10    5    7 ar  
    11    6   12 ar  
    12    6   34 1   
    13    7    8 1   
    14    7   10 ar  
    15    8    9 1   
    16    9   35 1   
    17    9   36 1   
    18    9   37 1   
    19   10   11 ar  
    20   10   38 1   
    21   11   12 ar  
    22   11   39 1   
    23   12   13 1   
    24   13   14 2   
    25   13   15 1   
    26   14   18 1   
    27   15   16 1   
    28   16   17 1   
    29   16   18 2   
    30   17   40 1   
    31   17   41 1   
    32   17   42 1   
    33   18   19 1   
    34   19   20 1   
    35   19   21 1   
    36   19   43 1   
    37   20   44 1   
    38   20   45 1   
    39   20   46 1   
    40   21   22 1   
    41   22   23 ar  
    42   22   24 ar  
    43   23   28 ar  
    44   24   25 ar  
    45   25   26 1   
    46   25   27 ar  
    47   26   47 1   
    48   26   48 1   
    49   27   28 ar  
    50   27   49 1   
    51   28   29 1   
    52   29   50 1   
    53   29   51 1   
@<TRIPOS>SUBSTRUCTURE
     1 2Y8         1 TEMP              0 ****  ****    0 ROOT
