@<TRIPOS>MOLECULE
2Y9
   77    79     1     0     0
SMALL
bcc


@<TRIPOS>ATOM
      1 C1         -0.9870    0.7270    0.3470 c3        1 2Y9      0.156800
      2 C2          0.5050    0.3760    0.1690 c3        1 2Y9     -0.199700
      3 C3          1.2350    0.5600    1.5110 c3        1 2Y9      0.169100
      4 C4          1.0530    2.0310    1.9380 c3        1 2Y9     -0.200700
      5 C5         -0.4570    2.3560    2.0520 c3        1 2Y9      0.171800
      6 N6         -1.2140    2.0580    0.8650 n7        1 2Y9     -0.789200
      7 C7          0.6280   -1.0580   -0.3290 c         1 2Y9      0.682100
      8 C8          1.7870    2.3730    3.2080 c         1 2Y9      0.563100
      9 O9          2.6630    3.2200    3.3180 o         1 2Y9     -0.432100
     10 N10         1.0270   -1.3140   -1.6360 n         1 2Y9     -0.405300
     11 O11         0.4480   -2.0010    0.4730 o         1 2Y9     -0.619100
     12 N12         1.4040    1.6040    4.4390 ny        1 2Y9     -0.662800
     13 O13         0.7310   -0.2350    2.5700 oh        1 2Y9     -0.677800
     14 C14         0.9900   -2.6760   -2.0990 cx        1 2Y9      0.022700
     15 C15         1.0250   -0.2780   -2.6300 ca        1 2Y9      0.460200
     16 C16        -0.0300   -3.1940   -3.0940 cx        1 2Y9     -0.132900
     17 C17         1.4110   -3.0850   -3.4930 cx        1 2Y9     -0.132900
     18 C18         2.2370    0.0210   -3.3040 ca        1 2Y9     -0.219300
     19 C19         2.2310    1.0000   -4.2990 ca        1 2Y9     -0.092000
     20 C20         1.0420    1.6630   -4.6120 ca        1 2Y9     -0.166600
     21 C21        -0.1140    1.3060   -3.8800 ca        1 2Y9      0.407200
     22 N22        -0.1440    0.3730   -2.9210 nb        1 2Y9     -0.689000
     23 C23         0.9890    2.7040   -5.6810 c3        1 2Y9     -0.025400
     24 C24         0.0530    2.2840   -6.8000 c3        1 2Y9     -0.091600
     25 C25         0.5690    4.0470   -5.1140 c3        1 2Y9     -0.091600
     26 C26         2.0450    2.0740    5.7150 c3        1 2Y9      0.127500
     27 C27         1.9260    1.0240    6.8210 c3        1 2Y9     -0.108400
     28 C28         2.5310   -0.3330    6.4960 c3        1 2Y9     -0.079700
     29 C29         3.9590   -0.2210    6.0070 c3        1 2Y9     -0.099100
     30 C30         2.4730   -1.2050    7.7380 c3        1 2Y9     -0.099100
     31 C31         1.4250    3.4040    6.1910 c3        1 2Y9      0.108400
     32 O32         0.0150    3.2340    6.2090 os        1 2Y9     -0.469600
     33 C33        -0.6640    4.2970    6.8960 c3        1 2Y9      0.137400
     34 C34        -2.1390    3.9910    6.8100 c3        1 2Y9     -0.104100
     35 H1         -1.5230    0.6270   -0.6370 h1        1 2Y9      0.095200
     36 H2         -1.4340   -0.0140    1.0710 h1        1 2Y9      0.095200
     37 H3          0.9790    1.0920   -0.5590 hc        1 2Y9      0.088700
     38 H4          2.3300    0.3250    1.3810 h1        1 2Y9      0.061700
     39 H5          1.5150    2.6800    1.1360 hc        1 2Y9      0.119700
     40 H6         -0.5830    3.4450    2.3050 h1        1 2Y9      0.069700
     41 H7         -0.8960    1.7310    2.8820 h1        1 2Y9      0.069700
     42 H8         -1.0700    2.7530    0.1550 hn        1 2Y9      0.377800
     43 H10         1.6480    0.6110    4.2780 hn        1 2Y9      0.483300
     44 H11         0.4940   -1.1160    2.2340 ho        1 2Y9      0.486000
     45 H12         1.2710   -3.3540   -1.2570 h1        1 2Y9      0.121700
     46 H13        -0.7600   -2.4970   -3.5440 hc        1 2Y9      0.085450
     47 H14        -0.4720   -4.1890   -2.9080 hc        1 2Y9      0.085450
     48 H15         1.7030   -2.3180   -4.2330 hc        1 2Y9      0.085450
     49 H16         2.0210   -4.0020   -3.5920 hc        1 2Y9      0.085450
     50 H17         3.1640   -0.5180   -3.0590 ha        1 2Y9      0.161000
     51 H18         3.1630    1.2380   -4.8360 ha        1 2Y9      0.155000
     52 H19        -1.0830    1.7990   -4.0910 h4        1 2Y9      0.036100
     53 H20         2.0240    2.8200   -6.1180 hc        1 2Y9      0.061700
     54 H21        -0.9910    2.1710   -6.4210 hc        1 2Y9      0.042867
     55 H22         0.0560    3.0570   -7.6060 hc        1 2Y9      0.042867
     56 H23         0.3800    1.3110   -7.2390 hc        1 2Y9      0.042867
     57 H24        -0.4590    3.9900   -4.6810 hc        1 2Y9      0.042867
     58 H25         0.5690    4.8160   -5.9240 hc        1 2Y9      0.042867
     59 H26         1.2750    4.3730   -4.3140 hc        1 2Y9      0.042867
     60 H27         3.1390    2.2640    5.4860 hx        1 2Y9      0.118700
     61 H28         2.4540    1.4490    7.7180 hc        1 2Y9      0.085700
     62 H29         0.8450    0.8980    7.1000 hc        1 2Y9      0.085700
     63 H30         1.9140   -0.8420    5.7010 hc        1 2Y9      0.038700
     64 H31         4.0030    0.2610    5.0010 hc        1 2Y9      0.047700
     65 H32         4.5760    0.3800    6.7180 hc        1 2Y9      0.047700
     66 H33         4.4150   -1.2390    5.9230 hc        1 2Y9      0.047700
     67 H34         2.8380   -2.2340    7.5000 hc        1 2Y9      0.047700
     68 H35         1.4240   -1.2790    8.1150 hc        1 2Y9      0.047700
     69 H36         3.1140   -0.7810    8.5470 hc        1 2Y9      0.047700
     70 H37         1.8170    3.6360    7.2170 h1        1 2Y9      0.069700
     71 H38         1.6950    4.2380    5.4890 h1        1 2Y9      0.069700
     72 H39        -0.3130    4.3240    7.9620 h1        1 2Y9      0.044200
     73 H40        -0.4150    5.2710    6.3970 h1        1 2Y9      0.044200
     74 H41        -2.3650    3.0040    7.2790 hc        1 2Y9      0.057033
     75 H42        -2.4760    3.9630    5.7460 hc        1 2Y9      0.057033
     76 H43        -2.7070    4.7880    7.3490 hc        1 2Y9      0.057033
     77 H122        0.3790    1.6570    4.5480 hn        1 2Y9      0.483300
@<TRIPOS>BOND
     1    1    2 1   
     2    1    6 1   
     3    1   35 1   
     4    1   36 1   
     5    2    3 1   
     6    2    7 1   
     7    2   37 1   
     8    3    4 1   
     9    3   13 1   
    10    3   38 1   
    11    4    5 1   
    12    4    8 1   
    13    4   39 1   
    14    5    6 1   
    15    5   40 1   
    16    5   41 1   
    17    6   42 1   
    18    7   10 1   
    19    7   11 2   
    20    8    9 2   
    21    8   12 1   
    22   10   14 1   
    23   10   15 1   
    24   12   26 1   
    25   12   43 1   
    26   12   77 1   
    27   13   44 1   
    28   14   16 1   
    29   14   17 1   
    30   14   45 1   
    31   15   18 ar  
    32   15   22 ar  
    33   16   17 1   
    34   16   46 1   
    35   16   47 1   
    36   17   48 1   
    37   17   49 1   
    38   18   19 ar  
    39   18   50 1   
    40   19   20 ar  
    41   19   51 1   
    42   20   21 ar  
    43   20   23 1   
    44   21   22 ar  
    45   21   52 1   
    46   23   24 1   
    47   23   25 1   
    48   23   53 1   
    49   24   54 1   
    50   24   55 1   
    51   24   56 1   
    52   25   57 1   
    53   25   58 1   
    54   25   59 1   
    55   26   27 1   
    56   26   31 1   
    57   26   60 1   
    58   27   28 1   
    59   27   61 1   
    60   27   62 1   
    61   28   29 1   
    62   28   30 1   
    63   28   63 1   
    64   29   64 1   
    65   29   65 1   
    66   29   66 1   
    67   30   67 1   
    68   30   68 1   
    69   30   69 1   
    70   31   32 1   
    71   31   70 1   
    72   31   71 1   
    73   32   33 1   
    74   33   34 1   
    75   33   72 1   
    76   33   73 1   
    77   34   74 1   
    78   34   75 1   
    79   34   76 1   
@<TRIPOS>SUBSTRUCTURE
     1 2Y9         1 TEMP              0 ****  ****    0 ROOT
