@<TRIPOS>MOLECULE
2Y9
   77    79     1     0     0
SMALL
bcc


@<TRIPOS>ATOM
      1 C1         -1.0100    0.7380    0.2880 c3        1 2Y9      0.160800
      2 C2          0.4780    0.3740    0.1490 c3        1 2Y9     -0.160700
      3 C3          1.1840    0.5520    1.5040 c3        1 2Y9      0.165100
      4 C4          0.9930    2.0220    1.9280 c3        1 2Y9     -0.154700
      5 C5         -0.5110    2.3440    2.0380 c3        1 2Y9      0.176800
      6 N6         -1.1780    2.0920    0.7800 n3        1 2Y9     -0.823200
      7 C7          0.5960   -1.0650   -0.3430 c         1 2Y9      0.677100
      8 C8          1.7250    2.3630    3.2020 c         1 2Y9      0.559100
      9 O9          2.6170    3.1920    3.3110 o         1 2Y9     -0.427100
     10 N10         1.0380   -1.3270   -1.6350 n         1 2Y9     -0.403300
     11 O11         0.3800   -2.0040    0.4550 o         1 2Y9     -0.623100
     12 N12         1.3280    1.6030    4.4360 n4        1 2Y9     -0.665800
     13 O13         0.6590   -0.2430    2.5540 oh        1 2Y9     -0.681800
     14 C14         1.0210   -2.6890   -2.0960 cx        1 2Y9      0.023700
     15 C15         1.0530   -0.2910   -2.6300 ca        1 2Y9      0.458200
     16 C16         0.0600   -3.2060   -3.1480 cx        1 2Y9     -0.132900
     17 C17         1.5230   -3.0980   -3.4640 cx        1 2Y9     -0.132900
     18 C18         2.2890    0.0540   -3.2350 ca        1 2Y9     -0.219300
     19 C19         2.3000    1.0380   -4.2260 ca        1 2Y9     -0.093000
     20 C20         1.1070    1.6590   -4.6010 ca        1 2Y9     -0.165600
     21 C21        -0.0750    1.2530   -3.9370 ca        1 2Y9      0.412200
     22 N22        -0.1230    0.3140   -2.9860 nb        1 2Y9     -0.684000
     23 C23         1.0750    2.7080   -5.6630 c3        1 2Y9     -0.025400
     24 C24         0.2180    2.2660   -6.8350 c3        1 2Y9     -0.091600
     25 C25         0.5760    4.0290   -5.1080 c3        1 2Y9     -0.091600
     26 C26         1.9970    2.0480    5.7060 c3        1 2Y9      0.127500
     27 C27         1.8560    0.9980    6.8100 c3        1 2Y9     -0.108400
     28 C28         2.4160   -0.3760    6.4760 c3        1 2Y9     -0.079700
     29 C29         3.8420   -0.3060    5.9740 c3        1 2Y9     -0.099100
     30 C30         2.3410   -1.2500    7.7150 c3        1 2Y9     -0.099100
     31 C31         1.4250    3.3950    6.1930 c3        1 2Y9      0.108400
     32 O32         0.0090    3.2700    6.2290 os        1 2Y9     -0.469600
     33 C33        -0.6240    4.3500    6.9330 c3        1 2Y9      0.136400
     34 C34        -2.1100    4.0920    6.8690 c3        1 2Y9     -0.103100
     35 H1         -1.4880   -0.0330    0.9640 h1        1 2Y9      0.073200
     36 H2         -1.5070    0.6810   -0.7220 h1        1 2Y9      0.073200
     37 H3          0.9710    1.0840   -0.5730 hc        1 2Y9      0.102700
     38 H4          2.2800    0.3150    1.3930 h1        1 2Y9      0.062700
     39 H5          1.4530    2.6750    1.1250 hc        1 2Y9      0.136700
     40 H6         -0.6410    3.4350    2.2870 h1        1 2Y9      0.044700
     41 H7         -0.9470    1.7270    2.8800 h1        1 2Y9      0.044700
     42 H8         -2.1480    2.3360    0.8370 hn        1 2Y9      0.399800
     43 H10         1.5380    0.6020    4.2700 hn        1 2Y9      0.482800
     44 H11         0.4380   -1.1270    2.2170 ho        1 2Y9      0.485000
     45 H12         1.2520   -3.3680   -1.2390 h1        1 2Y9      0.121700
     46 H13        -0.3910   -4.2020   -2.9890 hc        1 2Y9      0.084950
     47 H14        -0.6420   -2.5100   -3.6390 hc        1 2Y9      0.084950
     48 H15         1.8570   -2.3280   -4.1830 hc        1 2Y9      0.084950
     49 H16         2.1360   -4.0150   -3.5290 hc        1 2Y9      0.084950
     50 H17         3.2200   -0.4520   -2.9410 ha        1 2Y9      0.159000
     51 H18         3.2510    1.3140   -4.7100 ha        1 2Y9      0.154000
     52 H19        -1.0480    1.7140   -4.1970 h4        1 2Y9      0.036100
     53 H20         2.1270    2.8650   -6.0420 hc        1 2Y9      0.060700
     54 H21         0.6030    1.3100   -7.2630 hc        1 2Y9      0.042867
     55 H22         0.2370    3.0470   -7.6330 hc        1 2Y9      0.042867
     56 H23        -0.8410    2.1120   -6.5150 hc        1 2Y9      0.042867
     57 H24         1.2260    4.3720   -4.2680 hc        1 2Y9      0.042867
     58 H25        -0.4710    3.9310   -4.7330 hc        1 2Y9      0.042867
     59 H26         0.5930    4.8060   -5.9110 hc        1 2Y9      0.042867
     60 H27         3.0930    2.2040    5.4670 hx        1 2Y9      0.118700
     61 H28         0.7740    0.9050    7.1000 hc        1 2Y9      0.085200
     62 H29         2.4060    1.4040    7.7040 hc        1 2Y9      0.085200
     63 H30         1.7760   -0.8620    5.6840 hc        1 2Y9      0.038700
     64 H31         4.4830    0.2730    6.6830 hc        1 2Y9      0.047700
     65 H32         4.2660   -1.3370    5.8830 hc        1 2Y9      0.047700
     66 H33         3.8930    0.1780    4.9700 hc        1 2Y9      0.047700
     67 H34         3.0020   -0.8490    8.5200 hc        1 2Y9      0.047700
     68 H35         1.2940   -1.2930    8.1000 hc        1 2Y9      0.047700
     69 H36         2.6720   -2.2890    7.4700 hc        1 2Y9      0.047700
     70 H37         1.8370    3.6130    7.2140 h1        1 2Y9      0.070200
     71 H38         1.7110    4.2230    5.4880 h1        1 2Y9      0.070200
     72 H39        -0.2550    4.3600    7.9930 h1        1 2Y9      0.044700
     73 H40        -0.3520    5.3180    6.4340 h1        1 2Y9      0.044700
     74 H41        -2.6420    4.9020    7.4240 hc        1 2Y9      0.056033
     75 H42        -2.3590    3.1080    7.3350 hc        1 2Y9      0.056033
     76 H43        -2.4640    4.0830    5.8110 hc        1 2Y9      0.056033
     77 H122        0.3070    1.6900    4.5550 hn        1 2Y9      0.482800
@<TRIPOS>BOND
     1    1    2 1   
     2    1    6 1   
     3    1   35 1   
     4    1   36 1   
     5    2    3 1   
     6    2    7 1   
     7    2   37 1   
     8    3    4 1   
     9    3   13 1   
    10    3   38 1   
    11    4    5 1   
    12    4    8 1   
    13    4   39 1   
    14    5    6 1   
    15    5   40 1   
    16    5   41 1   
    17    6   42 1   
    18    7   10 1   
    19    7   11 2   
    20    8    9 2   
    21    8   12 1   
    22   10   14 1   
    23   10   15 1   
    24   12   26 1   
    25   12   43 1   
    26   12   77 1   
    27   13   44 1   
    28   14   16 1   
    29   14   17 1   
    30   14   45 1   
    31   15   18 ar  
    32   15   22 ar  
    33   16   17 1   
    34   16   46 1   
    35   16   47 1   
    36   17   48 1   
    37   17   49 1   
    38   18   19 ar  
    39   18   50 1   
    40   19   20 ar  
    41   19   51 1   
    42   20   21 ar  
    43   20   23 1   
    44   21   22 ar  
    45   21   52 1   
    46   23   24 1   
    47   23   25 1   
    48   23   53 1   
    49   24   54 1   
    50   24   55 1   
    51   24   56 1   
    52   25   57 1   
    53   25   58 1   
    54   25   59 1   
    55   26   27 1   
    56   26   31 1   
    57   26   60 1   
    58   27   28 1   
    59   27   61 1   
    60   27   62 1   
    61   28   29 1   
    62   28   30 1   
    63   28   63 1   
    64   29   64 1   
    65   29   65 1   
    66   29   66 1   
    67   30   67 1   
    68   30   68 1   
    69   30   69 1   
    70   31   32 1   
    71   31   70 1   
    72   31   71 1   
    73   32   33 1   
    74   33   34 1   
    75   33   72 1   
    76   33   73 1   
    77   34   74 1   
    78   34   75 1   
    79   34   76 1   
@<TRIPOS>SUBSTRUCTURE
     1 2Y9         1 TEMP              0 ****  ****    0 ROOT
