@<TRIPOS>MOLECULE
2Y9
   78    80     1     0     0
SMALL
bcc


@<TRIPOS>ATOM
      1 C1         -1.4870    0.5790    0.7680 c3        1 2Y9      0.172800
      2 C2         -0.1090    0.9530    0.1660 c3        1 2Y9     -0.223700
      3 C3          0.8870    1.2680    1.3050 c3        1 2Y9      0.163100
      4 C4          0.2840    2.3850    2.1760 c3        1 2Y9     -0.185700
      5 C5         -1.1160    1.9790    2.6970 c3        1 2Y9      0.163800
      6 N6         -2.0230    1.5770    1.6540 n3        1 2Y9     -0.787200
      7 C7          0.4130   -0.1620   -0.7010 c         1 2Y9      0.588100
      8 C8          1.2000    2.7950    3.3030 c         1 2Y9      0.554100
      9 O9          1.7200    3.8960    3.4120 o         1 2Y9     -0.403100
     10 N10        -0.2720   -0.3390   -2.0490 n4        1 2Y9     -0.529900
     11 O11         1.3310   -0.9230   -0.4300 o         1 2Y9     -0.430100
     12 N12         1.5060    1.7840    4.3670 n4        1 2Y9     -0.658800
     13 O13         1.1120    0.1580    2.1550 oh        1 2Y9     -0.635800
     14 C14        -0.5850   -1.7660   -2.2780 cx        1 2Y9     -0.004500
     15 C15         0.5860    0.2420   -3.1230 ca        1 2Y9      0.430200
     16 C16        -1.8620   -2.3680   -1.7220 cx        1 2Y9     -0.099400
     17 C17        -1.7150   -2.1850   -3.1990 cx        1 2Y9     -0.099400
     18 C18         0.7930   -0.4350   -4.3370 ca        1 2Y9     -0.163300
     19 C19         1.5900    0.1920   -5.3070 ca        1 2Y9     -0.084000
     20 C20         2.1490    1.4440   -5.0490 ca        1 2Y9     -0.100600
     21 C21         1.8790    2.0370   -3.7830 ca        1 2Y9      0.434200
     22 N22         1.1270    1.4690   -2.8390 nb        1 2Y9     -0.696000
     23 C23         3.0000    2.1460   -6.0560 c3        1 2Y9     -0.039400
     24 C24         2.3700    3.4640   -6.4680 c3        1 2Y9     -0.096600
     25 C25         4.4020    2.3670   -5.5180 c3        1 2Y9     -0.096600
     26 C26         1.3810    2.3330    5.7680 c3        1 2Y9      0.104500
     27 C27         2.0340    1.4040    6.7910 c3        1 2Y9     -0.112400
     28 C28         3.5050    1.0980    6.5460 c3        1 2Y9     -0.075700
     29 C29         4.3240    2.3520    6.3310 c3        1 2Y9     -0.102600
     30 C30         4.0470    0.3170    7.7290 c3        1 2Y9     -0.102600
     31 C31        -0.1030    2.5660    6.1300 c3        1 2Y9      0.108400
     32 O32        -0.8610    1.4220    5.7800 os        1 2Y9     -0.472600
     33 C33        -1.5330    0.7980    6.8900 c3        1 2Y9      0.131400
     34 C34        -2.3030   -0.3700    6.3230 c3        1 2Y9     -0.106100
     35 H1         -2.2290    0.4010   -0.0580 h1        1 2Y9      0.078200
     36 H2         -1.3600   -0.3750    1.3570 h1        1 2Y9      0.078200
     37 H3         -0.2050    1.8870   -0.4620 hc        1 2Y9      0.125700
     38 H4          1.8620    1.6090    0.8520 h1        1 2Y9      0.078700
     39 H5          0.1820    3.3040    1.5220 hc        1 2Y9      0.125700
     40 H6         -1.0180    1.1090    3.4110 h1        1 2Y9      0.096200
     41 H7         -1.5670    2.8440    3.2610 h1        1 2Y9      0.096200
     42 H8         -2.4050    2.3610    1.1590 hn        1 2Y9      0.392800
     43 H10         0.8680    0.9770    4.2700 hn        1 2Y9      0.476800
     44 H11         1.6120   -0.5110    1.6630 ho        1 2Y9      0.458000
     45 H12         0.3560   -2.3670   -2.2590 hx        1 2Y9      0.160700
     46 H13        -1.7930   -3.3840   -1.2820 hc        1 2Y9      0.113700
     47 H14        -2.5860   -1.7360   -1.1730 hc        1 2Y9      0.113700
     48 H15        -2.3310   -1.4210   -3.7100 hc        1 2Y9      0.113700
     49 H16        -1.5390   -3.0660   -3.8490 hc        1 2Y9      0.113700
     50 H17         0.3510   -1.4220   -4.5480 ha        1 2Y9      0.174000
     51 H18         1.7660   -0.3160   -6.2710 ha        1 2Y9      0.186000
     52 H19         2.3010    3.0310   -3.5290 h4        1 2Y9      0.061100
     53 H20         3.0780    1.4940   -6.9750 hc        1 2Y9      0.079700
     54 H21         3.0040    3.9500   -7.2510 hc        1 2Y9      0.052200
     55 H22         2.2920    4.1590   -5.5980 hc        1 2Y9      0.052200
     56 H23         1.3510    3.3010   -6.8910 hc        1 2Y9      0.052200
     57 H24         4.3850    3.0300   -4.6200 hc        1 2Y9      0.052200
     58 H25         4.8760    1.3950   -5.2400 hc        1 2Y9      0.052200
     59 H26         5.0290    2.8550   -6.3040 hc        1 2Y9      0.052200
     60 H27         1.9130    3.3350    5.7760 hx        1 2Y9      0.127700
     61 H28         1.4540    0.4440    6.8510 hc        1 2Y9      0.087700
     62 H29         1.9370    1.9170    7.7890 hc        1 2Y9      0.087700
     63 H30         3.6020    0.4390    5.6360 hc        1 2Y9      0.025700
     64 H31         5.4130    2.0960    6.2980 hc        1 2Y9      0.052700
     65 H32         4.1660    3.0770    7.1670 hc        1 2Y9      0.052700
     66 H33         4.0560    2.8530    5.3700 hc        1 2Y9      0.052700
     67 H34         3.4370   -0.6010    7.9070 hc        1 2Y9      0.052700
     68 H35         5.1030    0.0090    7.5320 hc        1 2Y9      0.052700
     69 H36         4.0300    0.9420    8.6550 hc        1 2Y9      0.052700
     70 H37        -0.5150    3.4200    5.5260 h1        1 2Y9      0.082700
     71 H38        -0.1680    2.8170    7.2210 h1        1 2Y9      0.082700
     72 H39        -2.2200    1.5480    7.3640 h1        1 2Y9      0.050700
     73 H40        -0.7660    0.4640    7.6370 h1        1 2Y9      0.050700
     74 H41        -1.6110   -1.1140    5.8620 hc        1 2Y9      0.058700
     75 H42        -3.0250   -0.0250    5.5450 hc        1 2Y9      0.058700
     76 H43        -2.8690   -0.8640    7.1500 hc        1 2Y9      0.058700
     77 H101       -1.1520    0.1980   -2.0420 hn        1 2Y9      0.454800
     78 H122        2.4710    1.4520    4.2330 hn        1 2Y9      0.476800
@<TRIPOS>BOND
     1    1    2 1   
     2    1    6 1   
     3    1   35 1   
     4    1   36 1   
     5    2    3 1   
     6    2    7 1   
     7    2   37 1   
     8    3    4 1   
     9    3   13 1   
    10    3   38 1   
    11    4    5 1   
    12    4    8 1   
    13    4   39 1   
    14    5    6 1   
    15    5   40 1   
    16    5   41 1   
    17    6   42 1   
    18    7   10 1   
    19    7   11 2   
    20    8    9 2   
    21    8   12 1   
    22   10   14 1   
    23   10   15 1   
    24   10   77 1   
    25   12   26 1   
    26   12   43 1   
    27   12   78 1   
    28   13   44 1   
    29   14   16 1   
    30   14   17 1   
    31   14   45 1   
    32   15   18 ar  
    33   15   22 ar  
    34   16   17 1   
    35   16   46 1   
    36   16   47 1   
    37   17   48 1   
    38   17   49 1   
    39   18   19 ar  
    40   18   50 1   
    41   19   20 ar  
    42   19   51 1   
    43   20   21 ar  
    44   20   23 1   
    45   21   22 ar  
    46   21   52 1   
    47   23   24 1   
    48   23   25 1   
    49   23   53 1   
    50   24   54 1   
    51   24   55 1   
    52   24   56 1   
    53   25   57 1   
    54   25   58 1   
    55   25   59 1   
    56   26   27 1   
    57   26   31 1   
    58   26   60 1   
    59   27   28 1   
    60   27   61 1   
    61   27   62 1   
    62   28   29 1   
    63   28   30 1   
    64   28   63 1   
    65   29   64 1   
    66   29   65 1   
    67   29   66 1   
    68   30   67 1   
    69   30   68 1   
    70   30   69 1   
    71   31   32 1   
    72   31   70 1   
    73   31   71 1   
    74   32   33 1   
    75   33   34 1   
    76   33   72 1   
    77   33   73 1   
    78   34   74 1   
    79   34   75 1   
    80   34   76 1   
@<TRIPOS>SUBSTRUCTURE
     1 2Y9         1 TEMP              0 ****  ****    0 ROOT
