@<TRIPOS>MOLECULE
2YA
   41    44     1     0     0
SMALL
bcc


@<TRIPOS>ATOM
      1 Cl1         0.9790    1.5230    1.1210 cl        1 2YA     -0.077400
      2 C19         2.6240    1.1870    0.8720 ca        1 2YA      0.015400
      3 C18         3.4930    1.1180    1.9650 ca        1 2YA     -0.110500
      4 C17         4.8410    0.8430    1.7670 ca        1 2YA     -0.120500
      5 C16         5.3330    0.6240    0.4630 ca        1 2YA      0.013800
      6 C21         4.4510    0.7010   -0.6350 ca        1 2YA     -0.120500
      7 C20         3.1050    0.9830   -0.4240 ca        1 2YA     -0.110500
      8 N3          6.7090    0.3300    0.2640 na        1 2YA      0.116300
      9 C15         7.5550   -0.2860    1.2020 cc        1 2YA     -0.194600
     10 C14         8.8010   -0.3470    0.5510 cd        1 2YA      0.219600
     11 N1          8.6180    0.2400   -0.7290 nd        1 2YA     -0.328000
     12 N2          7.4180    0.6160   -0.8660 nc        1 2YA     -0.152800
     13 C11        10.0820   -0.9040    1.0530 c3        1 2YA      0.137800
     14 C12        10.6840   -1.9120    0.0890 c3        1 2YA     -0.091100
     15 O1         11.0810    0.1300    1.1850 os        1 2YA     -0.321900
     16 C1         10.9110    0.9740    2.2680 ca        1 2YA      0.086100
     17 C6         10.8470    2.3800    2.0020 ca        1 2YA     -0.014000
     18 C7         10.8520    2.9020    0.6840 ca        1 2YA     -0.105000
     19 C8         10.7960    4.2590    0.4670 ca        1 2YA     -0.111000
     20 C9         10.7360    5.1540    1.5580 ca        1 2YA     -0.127000
     21 C10        10.7290    4.6850    2.8500 ca        1 2YA     -0.091000
     22 C5         10.7840    3.2830    3.0980 ca        1 2YA     -0.099300
     23 N4         10.7760    2.7980    4.4440 na        1 2YA      0.248600
     24 O2         10.7050    3.5860    5.3790 o         1 2YA     -0.292000
     25 C3         10.8430    1.4470    4.6370 ca        1 2YA     -0.225300
     26 C2         10.9170    0.5240    3.5690 ca        1 2YA     -0.144000
     27 H1          3.1160    1.2860    2.9870 ha        1 2YA      0.156500
     28 H2          5.5150    0.8090    2.6380 ha        1 2YA      0.156500
     29 H3          4.8140    0.5460   -1.6640 ha        1 2YA      0.156500
     30 H4          2.4220    1.0430   -1.2870 ha        1 2YA      0.156500
     31 H5          7.2220   -0.6200    2.1820 h4        1 2YA      0.196000
     32 H6          9.8990   -1.3770    2.0600 h1        1 2YA      0.047700
     33 H7         10.9590   -1.4140   -0.8720 hc        1 2YA      0.056700
     34 H8         11.6050   -2.3560    0.5360 hc        1 2YA      0.056700
     35 H9          9.9410   -2.7180   -0.1140 hc        1 2YA      0.056700
     36 H10        10.8990    2.1860   -0.1540 ha        1 2YA      0.168000
     37 H11        10.7980    4.6590   -0.5580 ha        1 2YA      0.143000
     38 H12        10.6940    6.2370    1.3630 ha        1 2YA      0.142000
     39 H13        10.6840    5.3750    3.7110 ha        1 2YA      0.170000
     40 H15        10.8450    1.1110    5.6890 h4        1 2YA      0.185000
     41 H16        10.9860   -0.5450    3.8160 ha        1 2YA      0.155000
@<TRIPOS>BOND
     1    1    2 1   
     2    2    3 ar  
     3    2    7 ar  
     4    3    4 ar  
     5    3   27 1   
     6    4    5 ar  
     7    4   28 1   
     8    5    6 ar  
     9    5    8 1   
    10    6    7 ar  
    11    6   29 1   
    12    7   30 1   
    13    8    9 1   
    14    8   12 1   
    15    9   10 2   
    16    9   31 1   
    17   10   11 1   
    18   10   13 1   
    19   11   12 2   
    20   13   14 1   
    21   13   15 1   
    22   13   32 1   
    23   14   33 1   
    24   14   34 1   
    25   14   35 1   
    26   15   16 1   
    27   16   17 ar  
    28   16   26 ar  
    29   17   18 ar  
    30   17   22 ar  
    31   18   19 ar  
    32   18   36 1   
    33   19   20 ar  
    34   19   37 1   
    35   20   21 ar  
    36   20   38 1   
    37   21   22 ar  
    38   21   39 1   
    39   22   23 1   
    40   23   24 1   
    41   23   25 2   
    42   25   26 ar  
    43   25   40 1   
    44   26   41 1   
@<TRIPOS>SUBSTRUCTURE
     1 2YA         1 TEMP              0 ****  ****    0 ROOT
