@<TRIPOS>MOLECULE
2YA
   41    44     1     0     0
SMALL
bcc


@<TRIPOS>ATOM
      1 CL1         0.9780    1.6030    1.2180 cl        1 2YA     -0.077400
      2 C19         2.6160    1.2500    0.9470 ca        1 2YA      0.015400
      3 C18         3.4980    1.1690    2.0290 ca        1 2YA     -0.110500
      4 C17         4.8410    0.8810    1.8130 ca        1 2YA     -0.120500
      5 C16         5.3130    0.6580    0.5030 ca        1 2YA      0.013800
      6 C21         4.4190    0.7470   -0.5830 ca        1 2YA     -0.120500
      7 C20         3.0780    1.0430   -0.3550 ca        1 2YA     -0.110500
      8 N3          6.6840    0.3500    0.2860 na        1 2YA      0.116300
      9 C15         7.5350   -0.2770    1.2120 cc        1 2YA     -0.194600
     10 C14         8.7710   -0.3500    0.5450 cd        1 2YA      0.219600
     11 N1          8.5790    0.2400   -0.7310 nd        1 2YA     -0.328000
     12 N2          7.3810    0.6300   -0.8530 nc        1 2YA     -0.152800
     13 C11        10.0530   -0.9210    1.0300 c3        1 2YA      0.137800
     14 C12        10.6310   -1.9350    0.0570 c3        1 2YA     -0.091100
     15 O1         11.0650    0.1010    1.1500 os        1 2YA     -0.321900
     16 C1         10.9180    0.9460    2.2360 ca        1 2YA      0.086100
     17 C6         10.8670    2.3530    1.9710 ca        1 2YA     -0.014000
     18 C7         10.8620    2.8760    0.6540 ca        1 2YA     -0.105000
     19 C8         10.8200    4.2340    0.4380 ca        1 2YA     -0.111000
     20 C9         10.7830    5.1290    1.5300 ca        1 2YA     -0.127000
     21 C10        10.7870    4.6590    2.8220 ca        1 2YA     -0.091000
     22 C5         10.8290    3.2560    3.0680 ca        1 2YA     -0.099300
     23 N4         10.8320    2.7700    4.4140 na        1 2YA      0.248600
     24 O2         10.7810    3.5580    5.3510 o         1 2YA     -0.292000
     25 C3         10.8840    1.4180    4.6060 ca        1 2YA     -0.225300
     26 C2         10.9350    0.4950    3.5360 ca        1 2YA     -0.144000
     27 H1          3.1360    1.3400    3.0560 ha        1 2YA      0.156500
     28 H2          5.5250    0.8390    2.6750 ha        1 2YA      0.156500
     29 H3          4.7670    0.5900   -1.6170 ha        1 2YA      0.156500
     30 H4          2.3850    1.1130   -1.2090 ha        1 2YA      0.156500
     31 H5          7.2100   -0.6080    2.1960 h4        1 2YA      0.196000
     32 H6          9.8780   -1.3940    2.0380 h1        1 2YA      0.047700
     33 H7         11.5520   -2.3900    0.4920 hc        1 2YA      0.056700
     34 H8         10.8990   -1.4390   -0.9070 hc        1 2YA      0.056700
     35 H9          9.8760   -2.7320   -0.1370 hc        1 2YA      0.056700
     36 H10        10.8900    2.1600   -0.1850 ha        1 2YA      0.168000
     37 H11        10.8130    4.6340   -0.5870 ha        1 2YA      0.143000
     38 H12        10.7520    6.2120    1.3370 ha        1 2YA      0.142000
     39 H13        10.7600    5.3480    3.6830 ha        1 2YA      0.170000
     40 H15        10.8960    1.0810    5.6570 h4        1 2YA      0.185000
     41 H16        10.9950   -0.5750    3.7810 ha        1 2YA      0.155000
@<TRIPOS>BOND
     1    1    2 1   
     2    2    3 ar  
     3    2    7 ar  
     4    3    4 ar  
     5    3   27 1   
     6    4    5 ar  
     7    4   28 1   
     8    5    6 ar  
     9    5    8 1   
    10    6    7 ar  
    11    6   29 1   
    12    7   30 1   
    13    8    9 1   
    14    8   12 1   
    15    9   10 2   
    16    9   31 1   
    17   10   11 1   
    18   10   13 1   
    19   11   12 2   
    20   13   14 1   
    21   13   15 1   
    22   13   32 1   
    23   14   33 1   
    24   14   34 1   
    25   14   35 1   
    26   15   16 1   
    27   16   17 ar  
    28   16   26 ar  
    29   17   18 ar  
    30   17   22 ar  
    31   18   19 ar  
    32   18   36 1   
    33   19   20 ar  
    34   19   37 1   
    35   20   21 ar  
    36   20   38 1   
    37   21   22 ar  
    38   21   39 1   
    39   22   23 1   
    40   23   24 1   
    41   23   25 2   
    42   25   26 ar  
    43   25   40 1   
    44   26   41 1   
@<TRIPOS>SUBSTRUCTURE
     1 2YA         1 TEMP              0 ****  ****    0 ROOT
