@<TRIPOS>MOLECULE
2YB
   68    71     1     0     0
SMALL
bcc


@<TRIPOS>ATOM
      1 C4         -0.0670    0.5730    0.5050 ca        1 2YB      0.127100
      2 C6         -2.1160   -0.1710   -0.4440 c3        1 2YB      0.136400
      3 C7         -2.7500   -0.2050   -1.8250 c3        1 2YB     -0.063400
      4 C8         -3.9420   -1.1340   -1.8310 c3        1 2YB     -0.321600
      5 C10        -5.7230   -2.4970   -3.1010 c3        1 2YB     -0.370300
      6 C13         1.2410    1.0080    0.2410 ca        1 2YB     -0.186500
      7 C15         3.5670    1.4700    0.9790 c3        1 2YB     -0.060300
      8 C17         2.8010    0.6370    3.6560 cp        1 2YB     -0.038000
      9 C20         4.6620    0.6500    5.7490 ca        1 2YB     -0.126000
     10 C21         4.2670   -0.5630    5.1740 ca        1 2YB     -0.084300
     11 C22         4.8600   -1.8380    5.6790 c3        1 2YB      0.174700
     12 C24         4.2200   -4.1030    6.0510 ca        1 2YB      0.133100
     13 C26         5.7260   -5.7090    7.0690 ca        1 2YB     -0.058000
     14 C28         4.6600   -8.0630    7.5450 c3        1 2YB     -0.012400
     15 C1          0.0970   -0.2360    4.1840 c3        1 2YB     -0.060300
     16 C2          0.5010    0.1930    2.8230 ca        1 2YB     -0.022800
     17 C3         -0.4410    0.1680    1.7890 ca        1 2YB     -0.186500
     18 O5         -0.9280    0.6170   -0.5780 os        1 2YB     -0.334900
     19 S9         -4.7240   -1.1550   -3.3500 s6        1 2YB      1.342000
     20 O11        -5.5150   -0.0070   -3.4890 o         1 2YB     -0.651800
     21 O12        -3.8110   -1.4390   -4.3710 o         1 2YB     -0.651800
     22 C14         2.1800    1.0330    1.2730 ca        1 2YB     -0.022800
     23 C16         1.8150    0.6250    2.5700 cp        1 2YB     -0.073000
     24 C18         3.2060    1.8470    4.2340 ca        1 2YB     -0.123000
     25 C19         4.1330    1.8490    5.2750 ca        1 2YB     -0.138000
     26 O23         3.8840   -2.8710    5.5070 os        1 2YB     -0.338900
     27 C25         5.4810   -4.4230    6.5550 ca        1 2YB     -0.252000
     28 C27         4.7130   -6.6420    7.0700 ca        1 2YB     -0.159300
     29 C30         5.6650   -8.9670    6.8670 c3        1 2YB     -0.195400
     30 C31         5.5250  -10.4180    7.3720 c         1 2YB      0.907600
     31 O32         6.4190  -10.8630    8.1450 o         1 2YB     -0.843800
     32 O33         4.5250  -11.0870    6.9790 o         1 2YB     -0.843800
     33 C34         3.2020   -8.4710    7.2270 c3        1 2YB      0.119400
     34 O35         2.5270   -7.3250    6.6090 os        1 2YB     -0.341900
     35 C36         3.4350   -6.2910    6.5450 ca        1 2YB      0.153100
     36 C37         3.1570   -5.0350    6.0340 ca        1 2YB     -0.199000
     37 C38         3.3400   -0.5670    4.1280 ca        1 2YB     -0.091000
     38 H1         -1.8560   -1.2040   -0.0940 h1        1 2YB      0.041700
     39 H2         -2.8010    0.3170    0.2980 h1        1 2YB      0.041700
     40 H3         -3.0660    0.8340   -2.1110 hc        1 2YB      0.076200
     41 H4         -1.9880   -0.5480   -2.5770 hc        1 2YB      0.076200
     42 H5         -3.5910   -2.1570   -1.5300 h1        1 2YB      0.111700
     43 H6         -4.6490   -0.8090   -1.0220 h1        1 2YB      0.111700
     44 H7         -6.2720   -2.4750   -2.1290 h1        1 2YB      0.117033
     45 H8         -5.1640   -3.4650   -3.1320 h1        1 2YB      0.117033
     46 H9         -6.5090   -2.5680   -3.8960 h1        1 2YB      0.117033
     47 H10         1.5110    1.3220   -0.7770 ha        1 2YB      0.141000
     48 H11         3.9110    2.2140    1.7410 hc        1 2YB      0.050367
     49 H12         3.6410    1.9350   -0.0340 hc        1 2YB      0.050367
     50 H13         4.2580    0.5900    1.0170 hc        1 2YB      0.050367
     51 H14         5.3860    0.6560    6.5770 ha        1 2YB      0.131000
     52 H15         5.7780   -2.0960    5.0810 h1        1 2YB      0.047700
     53 H16         5.1330   -1.7510    6.7650 h1        1 2YB      0.047700
     54 H17         6.7230   -5.9630    7.4590 ha        1 2YB      0.139000
     55 H18         4.8300   -8.1050    8.6550 hc        1 2YB      0.068700
     56 H19        -0.9550   -0.6120    4.1990 hc        1 2YB      0.050367
     57 H20         0.7730   -1.0520    4.5480 hc        1 2YB      0.050367
     58 H21         0.1770    0.6230    4.8970 hc        1 2YB      0.050367
     59 H22        -1.4650   -0.1710    1.9990 ha        1 2YB      0.141000
     60 H23         2.7860    2.7960    3.8680 ha        1 2YB      0.132000
     61 H24         4.4460    2.8020    5.7270 ha        1 2YB      0.127000
     62 H25         6.2970   -3.6900    6.5540 ha        1 2YB      0.123000
     63 H26         5.5070   -8.9570    5.7600 hc        1 2YB      0.032700
     64 H27         6.6980   -8.5980    7.0830 hc        1 2YB      0.032700
     65 H29         2.6190   -8.7030    8.1500 h1        1 2YB      0.084700
     66 H30         3.1530   -9.3180    6.4960 h1        1 2YB      0.084700
     67 H31         2.1750   -4.7660    5.6290 ha        1 2YB      0.151000
     68 H32         3.0270   -1.5270    3.6870 ha        1 2YB      0.159000
@<TRIPOS>BOND
     1    1    6 ar  
     2    1   17 ar  
     3    1   18 1   
     4    2    3 1   
     5    2   18 1   
     6    2   38 1   
     7    2   39 1   
     8    3    4 1   
     9    3   40 1   
    10    3   41 1   
    11    4   19 1   
    12    4   42 1   
    13    4   43 1   
    14    5   19 1   
    15    5   44 1   
    16    5   45 1   
    17    5   46 1   
    18    6   22 ar  
    19    6   47 1   
    20    7   22 1   
    21    7   48 1   
    22    7   49 1   
    23    7   50 1   
    24    8   23 1   
    25    8   24 ar  
    26    8   37 ar  
    27    9   10 ar  
    28    9   25 ar  
    29    9   51 1   
    30   10   11 1   
    31   10   37 ar  
    32   11   26 1   
    33   11   52 1   
    34   11   53 1   
    35   12   26 1   
    36   12   27 ar  
    37   12   36 ar  
    38   13   27 ar  
    39   13   28 ar  
    40   13   54 1   
    41   14   28 1   
    42   14   29 1   
    43   14   33 1   
    44   14   55 1   
    45   15   16 1   
    46   15   56 1   
    47   15   57 1   
    48   15   58 1   
    49   16   17 ar  
    50   16   23 ar  
    51   17   59 1   
    52   19   20 2   
    53   19   21 2   
    54   22   23 ar  
    55   24   25 ar  
    56   24   60 1   
    57   25   61 1   
    58   27   62 1   
    59   28   35 ar  
    60   29   30 1   
    61   29   63 1   
    62   29   64 1   
    63   30   31 1   
    64   30   32 1   
    65   33   34 1   
    66   33   65 1   
    67   33   66 1   
    68   34   35 1   
    69   35   36 ar  
    70   36   67 1   
    71   37   68 1   
@<TRIPOS>SUBSTRUCTURE
     1 2YB         1 TEMP              0 ****  ****    0 ROOT
