@<TRIPOS>MOLECULE
2YB
   68    71     1     0     0
SMALL
bcc


@<TRIPOS>ATOM
      1 C4         -0.0610    0.5700    0.4990 ca        1 2YB      0.127100
      2 C6         -2.1250   -0.1640   -0.4270 c3        1 2YB      0.136400
      3 C7         -2.7700   -0.2050   -1.8030 c3        1 2YB     -0.063400
      4 C8         -3.9680   -1.1260   -1.7920 c3        1 2YB     -0.321600
      5 C10        -5.7670   -2.4880   -3.0370 c3        1 2YB     -0.370300
      6 C13         1.2490    0.9880    0.2190 ca        1 2YB     -0.186500
      7 C15         3.5850    1.4320    0.9340 c3        1 2YB     -0.060300
      8 C17         2.8340    0.6330    3.6240 cp        1 2YB     -0.038000
      9 C20         4.7120    0.6450    5.7020 ca        1 2YB     -0.126000
     10 C21         4.2990   -0.5690    5.1420 ca        1 2YB     -0.084300
     11 C22         4.8830   -1.8450    5.6530 c3        1 2YB      0.174700
     12 C24         4.2240   -4.1020    6.0480 ca        1 2YB      0.133100
     13 C26         5.7240   -5.7160    7.0620 ca        1 2YB     -0.058000
     14 C28         4.6420   -8.0580    7.5550 c3        1 2YB     -0.012400
     15 C1          0.1250   -0.2060    4.1830 c3        1 2YB     -0.060300
     16 C2          0.5220    0.2060    2.8150 ca        1 2YB     -0.022800
     17 C3         -0.4290    0.1810    1.7890 ca        1 2YB     -0.186500
     18 O5         -0.9310    0.6120   -0.5780 os        1 2YB     -0.334900
     19 S9         -4.7630   -1.1540   -3.3040 s6        1 2YB      1.342000
     20 O11        -5.5480   -0.0030   -3.4460 o         1 2YB     -0.651800
     21 O12        -3.8590   -1.4520   -4.3300 o         1 2YB     -0.651800
     22 C14         2.1970    1.0130    1.2430 ca        1 2YB     -0.022800
     23 C16         1.8380    0.6200    2.5470 cp        1 2YB     -0.073000
     24 C18         3.2560    1.8440    4.1880 ca        1 2YB     -0.123000
     25 C19         4.1930    1.8450    5.2210 ca        1 2YB     -0.138000
     26 O23         3.8940   -2.8690    5.5010 os        1 2YB     -0.338900
     27 C25         5.4860   -4.4300    6.5450 ca        1 2YB     -0.252000
     28 C27         4.7030   -6.6400    7.0740 ca        1 2YB     -0.159300
     29 C30         5.6350   -8.9740    6.8750 c3        1 2YB     -0.195400
     30 C31         5.4870  -10.4210    7.3870 c         1 2YB      0.907600
     31 O32         6.3810  -10.8700    8.1550 o         1 2YB     -0.843800
     32 O33         4.4790  -11.0840    7.0020 o         1 2YB     -0.843800
     33 C34         3.1790   -8.4560    7.2490 c3        1 2YB      0.119400
     34 O35         2.5080   -7.3070    6.6310 os        1 2YB     -0.341900
     35 C36         3.4250   -6.2810    6.5560 ca        1 2YB      0.153100
     36 C37         3.1530   -5.0250    6.0410 ca        1 2YB     -0.199000
     37 C38         3.3630   -0.5720    4.1040 ca        1 2YB     -0.091000
     38 H1         -1.8710   -1.1960   -0.0690 h1        1 2YB      0.041700
     39 H2         -2.8000    0.3360    0.3150 h1        1 2YB      0.041700
     40 H3         -3.0810    0.8330   -2.0950 hc        1 2YB      0.076200
     41 H4         -2.0170   -0.5610   -2.5580 hc        1 2YB      0.076200
     42 H5         -3.6230   -2.1490   -1.4850 h1        1 2YB      0.111700
     43 H6         -4.6670   -0.7880   -0.9800 h1        1 2YB      0.111700
     44 H7         -5.2150   -3.4600   -3.0650 h1        1 2YB      0.117033
     45 H8         -6.5610   -2.5600   -3.8240 h1        1 2YB      0.117033
     46 H9         -6.3080   -2.4550   -2.0600 h1        1 2YB      0.117033
     47 H10         1.5140    1.2900   -0.8040 ha        1 2YB      0.141000
     48 H11         3.9440    2.1790    1.6850 hc        1 2YB      0.050367
     49 H12         4.2680    0.5450    0.9740 hc        1 2YB      0.050367
     50 H13         3.6560    1.8860   -0.0840 hc        1 2YB      0.050367
     51 H14         5.4440    0.6510    6.5230 ha        1 2YB      0.131000
     52 H15         5.1670   -1.7510    6.7360 h1        1 2YB      0.047700
     53 H16         5.7920   -2.1190    5.0500 h1        1 2YB      0.047700
     54 H17         6.7210   -5.9760    7.4470 ha        1 2YB      0.139000
     55 H18         4.8180   -8.0970    8.6640 hc        1 2YB      0.068700
     56 H19         0.2210    0.6590    4.8870 hc        1 2YB      0.050367
     57 H20        -0.9310   -0.5710    4.2110 hc        1 2YB      0.050367
     58 H21         0.7950   -1.0260    4.5490 hc        1 2YB      0.050367
     59 H22        -1.4540   -0.1450    2.0110 ha        1 2YB      0.141000
     60 H23         2.8430    2.7930    3.8170 ha        1 2YB      0.132000
     61 H24         4.5190    2.7990    5.6610 ha        1 2YB      0.127000
     62 H25         6.3080   -3.7030    6.5350 ha        1 2YB      0.123000
     63 H26         6.6730   -8.6120    7.0820 hc        1 2YB      0.032700
     64 H27         5.4700   -8.9670    5.7690 hc        1 2YB      0.032700
     65 H29         2.6000   -8.6800    8.1760 h1        1 2YB      0.084700
     66 H30         3.1170   -9.3060    6.5210 h1        1 2YB      0.084700
     67 H31         2.1720   -4.7500    5.6410 ha        1 2YB      0.151000
     68 H32         3.0360   -1.5330    3.6740 ha        1 2YB      0.159000
@<TRIPOS>BOND
     1    1    6 ar  
     2    1   17 ar  
     3    1   18 1   
     4    2    3 1   
     5    2   18 1   
     6    2   38 1   
     7    2   39 1   
     8    3    4 1   
     9    3   40 1   
    10    3   41 1   
    11    4   19 1   
    12    4   42 1   
    13    4   43 1   
    14    5   19 1   
    15    5   44 1   
    16    5   45 1   
    17    5   46 1   
    18    6   22 ar  
    19    6   47 1   
    20    7   22 1   
    21    7   48 1   
    22    7   49 1   
    23    7   50 1   
    24    8   23 1   
    25    8   24 ar  
    26    8   37 ar  
    27    9   10 ar  
    28    9   25 ar  
    29    9   51 1   
    30   10   11 1   
    31   10   37 ar  
    32   11   26 1   
    33   11   52 1   
    34   11   53 1   
    35   12   26 1   
    36   12   27 ar  
    37   12   36 ar  
    38   13   27 ar  
    39   13   28 ar  
    40   13   54 1   
    41   14   28 1   
    42   14   29 1   
    43   14   33 1   
    44   14   55 1   
    45   15   16 1   
    46   15   56 1   
    47   15   57 1   
    48   15   58 1   
    49   16   17 ar  
    50   16   23 ar  
    51   17   59 1   
    52   19   20 2   
    53   19   21 2   
    54   22   23 ar  
    55   24   25 ar  
    56   24   60 1   
    57   25   61 1   
    58   27   62 1   
    59   28   35 ar  
    60   29   30 1   
    61   29   63 1   
    62   29   64 1   
    63   30   31 1   
    64   30   32 1   
    65   33   34 1   
    66   33   65 1   
    67   33   66 1   
    68   34   35 1   
    69   35   36 ar  
    70   36   67 1   
    71   37   68 1   
@<TRIPOS>SUBSTRUCTURE
     1 2YB         1 TEMP              0 ****  ****    0 ROOT
