@<TRIPOS>MOLECULE
2YK
   42    45     1     0     0
SMALL
bcc


@<TRIPOS>ATOM
      1 N3         -0.5550    0.7410    0.3360 nc        1 2YK     -0.378700
      2 C4         -1.6060   -1.7410    2.9660 c2        1 2YK      0.419200
      3 N2         -2.8920   -1.7210    3.2210 n2        1 2YK     -0.532100
      4 C7          2.5390   -0.2050    3.4750 cc        1 2YK      0.444600
      5 C6          1.2260    1.3330    1.4390 cd        1 2YK     -0.118300
      6 C9          2.3100    1.8210    2.2820 cd        1 2YK     -0.024000
      7 C13         0.6470   -3.1490    7.3520 c2        1 2YK     -0.147200
      8 C8          3.1590    0.7490    2.5160 cc        1 2YK     -0.278300
      9 N5          0.7140    0.0850    2.0770 na        1 2YK     -0.002700
     10 C16         1.2700   -1.6770    9.2550 c3        1 2YK     -0.058900
     11 C17        -0.9830   -5.1380    5.6350 c3        1 2YK      0.111700
     12 C12         0.8930   -3.7070    5.9880 c3        1 2YK      0.178500
     13 C11         1.7080   -2.7870    5.1330 c2        1 2YK     -0.053200
     14 C14         1.4610   -2.2300    7.8950 ce        1 2YK     -0.160400
     15 C15         2.6230   -1.7120    7.1320 c         1 2YK      0.581500
     16 O1          3.6170   -1.2280    7.6830 o         1 2YK     -0.501100
     17 C10         2.5010   -1.8330    5.6530 ce        1 2YK     -0.185600
     18 S           3.4330   -0.7240    4.7710 ss        1 2YK      0.001100
     19 N4          0.4060    1.6450    0.4200 nc        1 2YK     -0.004000
     20 N6          1.3090   -0.5780    3.0930 nd        1 2YK     -0.498800
     21 C5         -0.4230   -0.2240    1.3040 cd        1 2YK      0.426800
     22 C3         -1.2990   -1.4110    1.4930 c3        1 2YK     -0.153600
     23 C2         -2.7020   -1.1990    0.9970 c2        1 2YK     -0.213800
     24 N1         -3.5810   -1.3710    2.0420 nh        1 2YK      0.238000
     25 C1         -4.9030   -1.2740    1.9980 c2        1 2YK     -0.009900
     26 H1         -0.8550   -2.0110    3.7210 h4        1 2YK      0.085800
     27 H2          2.0930    2.6330    2.9880 ha        1 2YK      0.164000
     28 H3          1.4530   -4.6870    6.0920 h1        1 2YK      0.078700
     29 H4          3.6830    0.2520    1.6800 ha        1 2YK      0.158000
     30 H5          2.2460   -1.6690    9.8040 hc        1 2YK      0.057367
     31 H6          0.9030   -0.6220    9.1870 hc        1 2YK      0.057367
     32 H7          0.5290   -2.2750    9.8370 hc        1 2YK      0.057367
     33 H8         -1.2360   -5.1520    6.7230 h1        1 2YK      0.042700
     34 H9         -0.3410   -6.0160    5.3790 h1        1 2YK      0.042700
     35 H10        -1.9150   -5.1350    5.0160 h1        1 2YK      0.042700
     36 H11         1.5960   -2.9560    4.0500 ha        1 2YK      0.162000
     37 H12        -0.2320   -3.5410    7.8850 ha        1 2YK      0.149000
     38 H13        -0.8140   -2.2970    0.9960 hc        1 2YK      0.104700
     39 H14        -2.9950   -0.8600    0.0110 h4        1 2YK      0.074800
     40 H15        -5.3710   -1.0030    1.0450 h4        1 2YK      0.028300
     41 H16        -5.5130   -1.4570    2.8890 h4        1 2YK      0.028300
     42 O2         -0.3330   -3.9260    5.2820 os        1 2YK     -0.415600
@<TRIPOS>BOND
     1    1   19 1   
     2    1   21 2   
     3    2    3 2   
     4    2   22 1   
     5    2   26 1   
     6    3   24 1   
     7    4    8 1   
     8    4   18 1   
     9    4   20 2   
    10    5    6 1   
    11    5    9 1   
    12    5   19 2   
    13    6    8 2   
    14    6   27 1   
    15    7   12 1   
    16    7   14 2   
    17    7   37 1   
    18    8   29 1   
    19    9   20 1   
    20    9   21 1   
    21   10   14 1   
    22   10   30 1   
    23   10   31 1   
    24   10   32 1   
    25   11   33 1   
    26   11   34 1   
    27   11   35 1   
    28   11   42 1   
    29   12   13 1   
    30   12   28 1   
    31   12   42 1   
    32   13   17 2   
    33   13   36 1   
    34   14   15 1   
    35   15   16 2   
    36   15   17 1   
    37   17   18 1   
    38   21   22 1   
    39   22   23 1   
    40   22   38 1   
    41   23   24 2   
    42   23   39 1   
    43   24   25 2   
    44   25   40 1   
    45   25   41 1   
@<TRIPOS>SUBSTRUCTURE
     1 2YK         1 TEMP              0 ****  ****    0 ROOT
