@<TRIPOS>MOLECULE
2YK
   42    45     1     0     0
SMALL
bcc


@<TRIPOS>ATOM
      1 N3         -0.4840    0.6870    0.2930 nc        1 2YK     -0.378700
      2 C4         -1.5940   -1.7400    2.9480 c2        1 2YK      0.419200
      3 N2         -2.8820   -1.7010    3.1870 n2        1 2YK     -0.532100
      4 C7          2.5640   -0.2470    3.4800 cc        1 2YK      0.444600
      5 C6          1.2920    1.2750    1.4070 cd        1 2YK     -0.118300
      6 C9          2.3720    1.7630    2.2540 cd        1 2YK     -0.024000
      7 C13         0.5950   -3.1060    7.3830 c2        1 2YK     -0.147200
      8 C8          3.2060    0.6850    2.5140 cc        1 2YK     -0.278300
      9 N5          0.7580    0.0430    2.0570 na        1 2YK     -0.002700
     10 C16         1.2190   -1.6130    9.2690 c3        1 2YK     -0.058900
     11 C17        -1.0430   -5.1000    5.6800 c3        1 2YK      0.111700
     12 C12         0.8480   -3.6880    6.0300 c3        1 2YK      0.178500
     13 C11         1.6830   -2.7920    5.1700 c2        1 2YK     -0.053200
     14 C14         1.4150   -2.1900    7.9200 ce        1 2YK     -0.160400
     15 C15         2.5920   -1.6970    7.1610 c         1 2YK      0.581500
     16 O1          3.5860   -1.2180    7.7140 o         1 2YK     -0.501100
     17 C10         2.4830   -1.8400    5.6830 ce        1 2YK     -0.185600
     18 S           3.4380   -0.7560    4.7930 ss        1 2YK      0.001100
     19 N4          0.4870    1.5810    0.3740 nc        1 2YK     -0.004000
     20 N6          1.3340   -0.6110    3.0900 nd        1 2YK     -0.498800
     21 C5         -0.3740   -0.2650    1.2770 cd        1 2YK      0.426800
     22 C3         -1.2660   -1.4380    1.4740 c3        1 2YK     -0.153600
     23 C2         -2.6600   -1.2180    0.9570 c2        1 2YK     -0.213800
     24 N1         -3.5530   -1.3630    1.9940 nh        1 2YK      0.238000
     25 C1         -4.8740   -1.2520    1.9330 c2        1 2YK     -0.009900
     26 H1         -0.8560   -2.0060    3.7170 h4        1 2YK      0.085800
     27 H2          2.1580    2.5880    2.9460 ha        1 2YK      0.164000
     28 H3          1.3940   -4.6730    6.1550 h1        1 2YK      0.078700
     29 H4          3.7330    0.1690    1.6910 ha        1 2YK      0.158000
     30 H5          0.8650   -0.5550    9.1810 hc        1 2YK      0.057367
     31 H6          0.4640   -2.1930    9.8530 hc        1 2YK      0.057367
     32 H7          2.1890   -1.6090    9.8280 hc        1 2YK      0.057367
     33 H8         -1.3060   -5.0940    6.7660 h1        1 2YK      0.042700
     34 H9         -0.4090   -5.9900    5.4440 h1        1 2YK      0.042700
     35 H10        -1.9690   -5.0950    5.0520 h1        1 2YK      0.042700
     36 H11         1.5800   -2.9760    4.0880 ha        1 2YK      0.162000
     37 H12        -0.2940   -3.4790    7.9130 ha        1 2YK      0.149000
     38 H13        -0.7840   -2.3370    0.9980 hc        1 2YK      0.104700
     39 H14        -2.9370   -0.8920   -0.0380 h4        1 2YK      0.074800
     40 H15        -5.3270   -0.9920    0.9700 h4        1 2YK      0.028300
     41 H16        -5.4960   -1.4140    2.8190 h4        1 2YK      0.028300
     42 O2         -0.3740   -3.9030    5.3150 os        1 2YK     -0.415600
@<TRIPOS>BOND
     1    1   19 1   
     2    1   21 2   
     3    2    3 2   
     4    2   22 1   
     5    2   26 1   
     6    3   24 1   
     7    4    8 1   
     8    4   18 1   
     9    4   20 2   
    10    5    6 1   
    11    5    9 1   
    12    5   19 2   
    13    6    8 2   
    14    6   27 1   
    15    7   12 1   
    16    7   14 2   
    17    7   37 1   
    18    8   29 1   
    19    9   20 1   
    20    9   21 1   
    21   10   14 1   
    22   10   30 1   
    23   10   31 1   
    24   10   32 1   
    25   11   33 1   
    26   11   34 1   
    27   11   35 1   
    28   11   42 1   
    29   12   13 1   
    30   12   28 1   
    31   12   42 1   
    32   13   17 2   
    33   13   36 1   
    34   14   15 1   
    35   15   16 2   
    36   15   17 1   
    37   17   18 1   
    38   21   22 1   
    39   22   23 1   
    40   22   38 1   
    41   23   24 2   
    42   23   39 1   
    43   24   25 2   
    44   25   40 1   
    45   25   41 1   
@<TRIPOS>SUBSTRUCTURE
     1 2YK         1 TEMP              0 ****  ****    0 ROOT
