@<TRIPOS>MOLECULE
2YL
   23    24     1     0     0
SMALL
bcc


@<TRIPOS>ATOM
      1 N1         -0.0370   -0.0950   -0.0610 ns        1 2YL     -0.523400
      2 C2          1.4080   -0.3690   -0.0680 c         1 2YL      0.831900
      3 N3          2.0920   -0.3650    1.1680 nc        1 2YL     -0.594100
      4 C4          1.4230   -0.1100    2.2850 cd        1 2YL      0.791900
      5 N5          0.0150    0.1540    2.3330 nd        1 2YL     -0.720000
      6 C6         -0.6170    0.1470    1.1680 cc        1 2YL      0.580800
      7 N7         -2.0970    0.4390    1.2200 nz        1 2YL     -0.819600
      8 O8          1.8890   -0.5820   -1.1790 o         1 2YL     -0.484500
      9 C9          3.4870   -0.0190    6.0230 ca        1 2YL     -0.067000
     10 C10         4.1460    0.3420    4.8470 ca        1 2YL     -0.136500
     11 C11         3.4740    0.3140    3.6270 ca        1 2YL     -0.064000
     12 C12         2.1240   -0.0740    3.5850 ca        1 2YL     -0.180900
     13 C13         1.4620   -0.4380    4.7680 ca        1 2YL     -0.064000
     14 C14         2.1470   -0.4100    5.9800 ca        1 2YL     -0.136500
     15 H2         -2.6200   -0.3660    0.8550 hn        1 2YL      0.484467
     16 H3         -2.3810    0.6100    2.1980 hn        1 2YL      0.484467
     17 H6          4.0110    0.5970    2.7070 ha        1 2YL      0.151000
     18 H7          0.4100   -0.7590    4.7550 ha        1 2YL      0.151000
     19 H8          1.6290   -0.7020    6.9070 ha        1 2YL      0.157000
     20 H9         -0.5290   -0.0960   -0.9270 hn        1 2YL      0.360500
     21 H4          4.0240    0.0010    6.9850 ha        1 2YL      0.157000
     22 H73        -2.3040    1.2740    0.6590 hn        1 2YL      0.484467
     23 H5          5.2040    0.6470    4.8790 ha        1 2YL      0.157000
@<TRIPOS>BOND
     1    1    2 1   
     2    1    6 1   
     3    1   20 1   
     4    2    3 1   
     5    2    8 2   
     6    3    4 2   
     7    4    5 1   
     8    4   12 1   
     9    5    6 2   
    10    6    7 1   
    11    7   15 1   
    12    7   16 1   
    13    7   22 1   
    14    9   10 ar  
    15    9   14 ar  
    16    9   21 1   
    17   10   11 ar  
    18   10   23 1   
    19   11   12 ar  
    20   11   17 1   
    21   12   13 ar  
    22   13   14 ar  
    23   13   18 1   
    24   14   19 1   
@<TRIPOS>SUBSTRUCTURE
     1 2YL         1 TEMP              0 ****  ****    0 ROOT
