@<TRIPOS>MOLECULE
2YL
   23    24     1     0     0
SMALL
bcc


@<TRIPOS>ATOM
      1 N1         -0.0210    0.1300   -0.0670 n         1 2YL     -0.523400
      2 C2          1.4280    0.3800   -0.0660 c         1 2YL      0.831900
      3 N3          2.1060    0.3620    1.1730 nc        1 2YL     -0.594100
      4 C4          1.4280    0.1140    2.2860 cd        1 2YL      0.791900
      5 N5          0.0150   -0.1270    2.3270 nd        1 2YL     -0.720000
      6 C6         -0.6110   -0.1060    1.1580 cc        1 2YL      0.580800
      7 N7         -2.0960   -0.3740    1.2020 n4        1 2YL     -0.819600
      8 O8          1.9180    0.5880   -1.1750 o         1 2YL     -0.484500
      9 C9          3.4710   -0.0200    6.0340 ca        1 2YL     -0.067000
     10 C10         4.1300   -0.3880    4.8610 ca        1 2YL     -0.136500
     11 C11         3.4640   -0.3460    3.6370 ca        1 2YL     -0.064000
     12 C12         2.1210    0.0630    3.5890 ca        1 2YL     -0.180900
     13 C13         1.4590    0.4340    4.7710 ca        1 2YL     -0.064000
     14 C14         2.1370    0.3920    5.9850 ca        1 2YL     -0.136500
     15 H2         -2.3880   -0.5430    2.1780 hn        1 2YL      0.484467
     16 H3         -2.6030    0.4410    0.8370 hn        1 2YL      0.484467
     17 H6          4.0010   -0.6350    2.7190 ha        1 2YL      0.151000
     18 H7          0.4120    0.7730    4.7530 ha        1 2YL      0.151000
     19 H8          1.6200    0.6890    6.9110 ha        1 2YL      0.157000
     20 H9         -0.5090    0.1410   -0.9360 hn        1 2YL      0.360500
     21 H4          4.0030   -0.0520    6.9990 ha        1 2YL      0.157000
     22 H73        -2.3140   -1.2040    0.6380 hn        1 2YL      0.484467
     23 H5          5.1830   -0.7110    4.8960 ha        1 2YL      0.157000
@<TRIPOS>BOND
     1    1    2 1   
     2    1    6 1   
     3    1   20 1   
     4    2    3 1   
     5    2    8 2   
     6    3    4 2   
     7    4    5 1   
     8    4   12 1   
     9    5    6 2   
    10    6    7 1   
    11    7   15 1   
    12    7   16 1   
    13    7   22 1   
    14    9   10 ar  
    15    9   14 ar  
    16    9   21 1   
    17   10   11 ar  
    18   10   23 1   
    19   11   12 ar  
    20   11   17 1   
    21   12   13 ar  
    22   13   14 ar  
    23   13   18 1   
    24   14   19 1   
@<TRIPOS>SUBSTRUCTURE
     1 2YL         1 TEMP              0 ****  ****    0 ROOT
