@<TRIPOS>MOLECULE
2YM
   47    50     1     0     0
SMALL
bcc


@<TRIPOS>ATOM
      1 O           0.8940   -2.0830   -0.0410 o         1 2YM     -0.407100
      2 C1          1.7670   -1.2200   -0.0690 c         1 2YM      0.720100
      3 N1          2.3300   -0.7650    1.1760 nc        1 2YM     -0.623100
      4 C2          2.2930   -0.6000   -1.3100 ca        1 2YM     -0.223600
      5 C15         3.3180    0.4000   -1.2310 ca        1 2YM      0.221600
      6 N6          3.8110    0.7790    0.0330 na        1 2YM     -0.733600
      7 C           3.2580    0.1490    1.1570 cd        1 2YM      0.741100
      8 N           3.7920    0.5680    2.5050 n4        1 2YM     -0.815600
      9 C14         3.8390    1.0060   -2.3850 ca        1 2YM     -0.178000
     10 C13         3.3100    0.5900   -3.6130 ca        1 2YM      0.022800
     11 C4          2.2690   -0.4240   -3.7000 ca        1 2YM      0.033400
     12 C3          1.7690   -1.0120   -2.5300 ca        1 2YM      0.073000
     13 N5          3.5900    0.9840   -4.9210 na        1 2YM     -0.253300
     14 C5          2.7270    0.2050   -5.7440 cc        1 2YM      0.428700
     15 N2          1.9280   -0.6420   -5.0430 nd        1 2YM     -0.447100
     16 N3          2.7010    0.3190   -7.2050 n4        1 2YM     -0.685000
     17 C6          4.0030   -0.0890   -7.8290 c3        1 2YM      0.083800
     18 C7          3.9040   -0.0950   -9.3850 c3        1 2YM      0.177800
     19 N4          5.2050   -0.4110   -9.9190 n3        1 2YM     -0.760600
     20 C12         5.7060    0.5710  -10.8740 c3        1 2YM      0.178800
     21 C11         7.1190    0.2580  -11.3640 c3        1 2YM     -0.077900
     22 C10         7.2170   -1.1590  -11.8860 c3        1 2YM     -0.085400
     23 C9          6.7410   -2.1420  -10.8390 c3        1 2YM     -0.077900
     24 C8          5.3330   -1.7960  -10.3580 c3        1 2YM      0.178800
     25 H1          4.5190    1.4760    0.0910 hn        1 2YM      0.479800
     26 H2          3.6190    1.5690    2.6560 hn        1 2YM      0.492467
     27 H3          3.3030    0.0290    3.2440 hn        1 2YM      0.492467
     28 H4          4.6250    1.7750   -2.3400 ha        1 2YM      0.173000
     29 H5          0.9760   -1.7860   -2.5680 ha        1 2YM      0.213000
     30 H6          4.2760    1.6340   -5.2130 hn        1 2YM      0.340700
     31 H8          1.9480   -0.2940   -7.5630 hn        1 2YM      0.481800
     32 H9          4.7980    0.6340   -7.4940 hx        1 2YM      0.115700
     33 H10         4.2610   -1.1220   -7.4560 hx        1 2YM      0.115700
     34 H11         3.1200   -0.8510   -9.6840 h1        1 2YM      0.057200
     35 H12         3.5580    0.9220   -9.7280 h1        1 2YM      0.057200
     36 H14         5.0220    0.6440  -11.7710 h1        1 2YM      0.036700
     37 H15         5.7140    1.5750  -10.3620 h1        1 2YM      0.036700
     38 H16         7.8520    0.4050  -10.5280 hc        1 2YM      0.061700
     39 H17         7.3730    0.9880  -12.1750 hc        1 2YM      0.061700
     40 H18         8.2800   -1.3860  -12.1620 hc        1 2YM      0.061700
     41 H19         6.5990   -1.2640  -12.8160 hc        1 2YM      0.061700
     42 H20         6.7170   -3.1790  -11.2640 hc        1 2YM      0.061700
     43 H21         7.4500   -2.1440   -9.9710 hc        1 2YM      0.061700
     44 H22         5.0740   -2.4550   -9.4820 h1        1 2YM      0.036700
     45 H23         4.6030   -2.0230  -11.1900 h1        1 2YM      0.036700
     46 HN3         4.7990    0.3710    2.5610 hn        1 2YM      0.492467
     47 H32         2.4740    1.2900   -7.4630 hn        1 2YM      0.481800
@<TRIPOS>BOND
     1    1    2 2   
     2    2    3 1   
     3    2    4 1   
     4    3    7 2   
     5    4    5 ar  
     6    4   12 ar  
     7    5    6 1   
     8    5    9 ar  
     9    6    7 1   
    10    6   25 1   
    11    7    8 1   
    12    8   26 1   
    13    8   27 1   
    14    8   46 1   
    15    9   10 ar  
    16    9   28 1   
    17   10   11 ar  
    18   10   13 1   
    19   11   12 ar  
    20   11   15 1   
    21   12   29 1   
    22   13   14 1   
    23   13   30 1   
    24   14   15 2   
    25   14   16 1   
    26   16   17 1   
    27   16   31 1   
    28   16   47 1   
    29   17   18 1   
    30   17   32 1   
    31   17   33 1   
    32   18   19 1   
    33   18   34 1   
    34   18   35 1   
    35   19   20 1   
    36   19   24 1   
    37   20   21 1   
    38   20   36 1   
    39   20   37 1   
    40   21   22 1   
    41   21   38 1   
    42   21   39 1   
    43   22   23 1   
    44   22   40 1   
    45   22   41 1   
    46   23   24 1   
    47   23   42 1   
    48   23   43 1   
    49   24   44 1   
    50   24   45 1   
@<TRIPOS>SUBSTRUCTURE
     1 2YM         1 TEMP              0 ****  ****    0 ROOT
