@<TRIPOS>MOLECULE
2YM
   46    49     1     0     0
SMALL
bcc


@<TRIPOS>ATOM
      1 O           0.0350   -0.7550    0.0520 o         1 2YM     -0.447100
      2 C1          1.2250   -0.4430   -0.0020 c         1 2YM      0.727100
      3 N1          1.9240   -0.2490    1.2460 nc        1 2YM     -0.658100
      4 C2          2.0020   -0.2470   -1.2420 ca        1 2YM     -0.212600
      5 C15         3.3780    0.1200   -1.1730 ca        1 2YM      0.138600
      6 N6          4.0040    0.2480    0.0940 na        1 2YM     -0.708600
      7 C           3.1810    0.0980    1.2110 cd        1 2YM      0.723100
      8 N           3.8390    0.2740    2.5630 nz        1 2YM     -0.819600
      9 C14         4.1410    0.3340   -2.3330 ca        1 2YM     -0.161000
     10 C13         3.4940    0.1600   -3.5550 ca        1 2YM     -0.023200
     11 C4          2.0860   -0.2210   -3.6420 ca        1 2YM      0.102400
     12 C3          1.3580   -0.4200   -2.4700 ca        1 2YM      0.005000
     13 N5          3.9510    0.2640   -4.8660 na        1 2YM     -0.297300
     14 C5          2.8200   -0.0090   -5.7110 cc        1 2YM      0.657700
     15 N2          1.6970   -0.3280   -4.9840 nd        1 2YM     -0.601100
     16 N3          2.8750    0.1320   -7.0930 nu        1 2YM     -0.787200
     17 C6          4.1470   -0.0220   -7.7660 c3        1 2YM      0.178800
     18 C7          3.9730   -0.1030   -9.3050 c3        1 2YM      0.170800
     19 N4          5.2670   -0.2160   -9.9560 n3        1 2YM     -0.745600
     20 C12         5.3430    0.5460  -11.1960 c3        1 2YM      0.174300
     21 C11         6.7100    0.4550  -11.8730 c3        1 2YM     -0.077900
     22 C10         7.1310   -0.9850  -12.0670 c3        1 2YM     -0.080400
     23 C9          7.0780   -1.7320  -10.7520 c3        1 2YM     -0.077900
     24 C8          5.7030   -1.5990  -10.1010 c3        1 2YM      0.174300
     25 H1          4.8810    0.7160    0.1360 hn        1 2YM      0.460800
     26 H2          4.6120   -0.3930    2.6610 hn        1 2YM      0.479800
     27 H3          3.1400    0.0900    3.3020 hn        1 2YM      0.479800
     28 H4          5.2010    0.6180   -2.2890 ha        1 2YM      0.151000
     29 H5          0.2920   -0.7080   -2.5000 ha        1 2YM      0.193000
     30 H6          4.8290    0.6040   -5.1600 hn        1 2YM      0.321700
     31 H8          2.0770   -0.2370   -7.5740 hn        1 2YM      0.450800
     32 H9          4.6890   -0.9430   -7.4050 h1        1 2YM      0.052700
     33 H10         4.7810    0.8780   -7.5200 h1        1 2YM      0.052700
     34 H11         3.3000   -0.9770   -9.5490 h1        1 2YM      0.047200
     35 H12         3.4510    0.8330   -9.6520 h1        1 2YM      0.047200
     36 H14         5.1370    1.6250  -10.9450 h1        1 2YM      0.031450
     37 H15         4.5560    0.2070  -11.9330 h1        1 2YM      0.031450
     38 H16         6.6450    0.9760  -12.8630 hc        1 2YM      0.051450
     39 H17         7.4750    0.9920  -11.2530 hc        1 2YM      0.051450
     40 H18         6.4520   -1.4800  -12.8100 hc        1 2YM      0.047700
     41 H19         8.1710   -1.0230  -12.4840 hc        1 2YM      0.047700
     42 H20         7.2860   -2.8200  -10.9160 hc        1 2YM      0.051450
     43 H21         7.8650   -1.3330  -10.0600 hc        1 2YM      0.051450
     44 H22         4.9620   -2.2000  -10.7090 h1        1 2YM      0.031450
     45 H23         5.7420   -2.0520   -9.0710 h1        1 2YM      0.031450
     46 HN3         4.1850    1.2330    2.6610 hn        1 2YM      0.479800
@<TRIPOS>BOND
     1    1    2 2   
     2    2    3 1   
     3    2    4 1   
     4    3    7 2   
     5    4    5 ar  
     6    4   12 ar  
     7    5    6 1   
     8    5    9 ar  
     9    6    7 1   
    10    6   25 1   
    11    7    8 1   
    12    8   26 1   
    13    8   27 1   
    14    8   46 1   
    15    9   10 ar  
    16    9   28 1   
    17   10   11 ar  
    18   10   13 1   
    19   11   12 ar  
    20   11   15 1   
    21   12   29 1   
    22   13   14 1   
    23   13   30 1   
    24   14   15 2   
    25   14   16 1   
    26   16   17 1   
    27   16   31 1   
    28   17   18 1   
    29   17   32 1   
    30   17   33 1   
    31   18   19 1   
    32   18   34 1   
    33   18   35 1   
    34   19   20 1   
    35   19   24 1   
    36   20   21 1   
    37   20   36 1   
    38   20   37 1   
    39   21   22 1   
    40   21   38 1   
    41   21   39 1   
    42   22   23 1   
    43   22   40 1   
    44   22   41 1   
    45   23   24 1   
    46   23   42 1   
    47   23   43 1   
    48   24   44 1   
    49   24   45 1   
@<TRIPOS>SUBSTRUCTURE
     1 2YM         1 TEMP              0 ****  ****    0 ROOT
