@<TRIPOS>MOLECULE
2YM
   46    49     1     0     0
SMALL
bcc


@<TRIPOS>ATOM
      1 O           0.0310   -0.7510    0.0500 o         1 2YM     -0.447100
      2 C1          1.2200   -0.4380   -0.0050 c         1 2YM      0.727100
      3 N1          1.9180   -0.2420    1.2430 nc        1 2YM     -0.658100
      4 C2          1.9980   -0.2430   -1.2440 ca        1 2YM     -0.212600
      5 C15         3.3730    0.1260   -1.1750 ca        1 2YM      0.138600
      6 N6          3.9980    0.2570    0.0920 na        1 2YM     -0.708600
      7 C           3.1750    0.1070    1.2090 cd        1 2YM      0.723100
      8 N           3.8320    0.2850    2.5620 n4        1 2YM     -0.819600
      9 C14         4.1370    0.3390   -2.3350 ca        1 2YM     -0.161000
     10 C13         3.4910    0.1630   -3.5570 ca        1 2YM     -0.023200
     11 C4          2.0840   -0.2200   -3.6440 ca        1 2YM      0.102400
     12 C3          1.3550   -0.4180   -2.4730 ca        1 2YM      0.005000
     13 N5          3.9490    0.2660   -4.8670 na        1 2YM     -0.297300
     14 C5          2.8190   -0.0100   -5.7130 cc        1 2YM      0.657700
     15 N2          1.6960   -0.3300   -4.9860 nd        1 2YM     -0.601100
     16 N3          2.8750    0.1290   -7.0960 nh        1 2YM     -0.787200
     17 C6          4.1480   -0.0240   -7.7670 c3        1 2YM      0.178800
     18 C7          3.9760   -0.1090   -9.3060 c3        1 2YM      0.170800
     19 N4          5.2710   -0.2210   -9.9550 n3        1 2YM     -0.745600
     20 C12         5.3460    0.5390  -11.1970 c3        1 2YM      0.174300
     21 C11         6.7130    0.4490  -11.8720 c3        1 2YM     -0.077900
     22 C10         7.1380   -0.9910  -12.0620 c3        1 2YM     -0.080400
     23 C9          7.0850   -1.7340  -10.7460 c3        1 2YM     -0.077900
     24 C8          5.7090   -1.6030  -10.0970 c3        1 2YM      0.174300
     25 H1          4.8740    0.7260    0.1350 hn        1 2YM      0.460800
     26 H2          4.6050   -0.3810    2.6610 hn        1 2YM      0.479800
     27 H3          4.1760    1.2440    2.6580 hn        1 2YM      0.479800
     28 H4          5.1970    0.6250   -2.2900 ha        1 2YM      0.151000
     29 H5          0.2890   -0.7080   -2.5020 ha        1 2YM      0.193000
     30 H6          4.8270    0.6070   -5.1610 hn        1 2YM      0.321700
     31 H8          2.0780   -0.2430   -7.5760 hn        1 2YM      0.450800
     32 H9          4.6910   -0.9430   -7.4030 h1        1 2YM      0.052700
     33 H10         4.7800    0.8770   -7.5220 h1        1 2YM      0.052700
     34 H11         3.4530    0.8260   -9.6550 h1        1 2YM      0.047200
     35 H12         3.3050   -0.9850   -9.5480 h1        1 2YM      0.047200
     36 H14         4.5600    0.1960  -11.9340 h1        1 2YM      0.031450
     37 H15         5.1370    1.6180  -10.9490 h1        1 2YM      0.031450
     38 H16         6.6490    0.9670  -12.8640 hc        1 2YM      0.051450
     39 H17         7.4770    0.9890  -11.2530 hc        1 2YM      0.051450
     40 H18         6.4610   -1.4890  -12.8050 hc        1 2YM      0.047700
     41 H19         8.1780   -1.0280  -12.4780 hc        1 2YM      0.047700
     42 H20         7.2950   -2.8230  -10.9070 hc        1 2YM      0.051450
     43 H21         7.8710   -1.3330  -10.0540 hc        1 2YM      0.051450
     44 H22         4.9700   -2.2080  -10.7030 h1        1 2YM      0.031450
     45 H23         5.7480   -2.0530   -9.0650 h1        1 2YM      0.031450
     46 HN3         3.1320    0.1010    3.3000 hn        1 2YM      0.479800
@<TRIPOS>BOND
     1    1    2 2   
     2    2    3 1   
     3    2    4 1   
     4    3    7 2   
     5    4    5 ar  
     6    4   12 ar  
     7    5    6 1   
     8    5    9 ar  
     9    6    7 1   
    10    6   25 1   
    11    7    8 1   
    12    8   26 1   
    13    8   27 1   
    14    8   46 1   
    15    9   10 ar  
    16    9   28 1   
    17   10   11 ar  
    18   10   13 1   
    19   11   12 ar  
    20   11   15 1   
    21   12   29 1   
    22   13   14 1   
    23   13   30 1   
    24   14   15 2   
    25   14   16 1   
    26   16   17 1   
    27   16   31 1   
    28   17   18 1   
    29   17   32 1   
    30   17   33 1   
    31   18   19 1   
    32   18   34 1   
    33   18   35 1   
    34   19   20 1   
    35   19   24 1   
    36   20   21 1   
    37   20   36 1   
    38   20   37 1   
    39   21   22 1   
    40   21   38 1   
    41   21   39 1   
    42   22   23 1   
    43   22   40 1   
    44   22   41 1   
    45   23   24 1   
    46   23   42 1   
    47   23   43 1   
    48   24   44 1   
    49   24   45 1   
@<TRIPOS>SUBSTRUCTURE
     1 2YM         1 TEMP              0 ****  ****    0 ROOT
