@<TRIPOS>MOLECULE
2YO
   44    47     1     0     0
SMALL
bcc


@<TRIPOS>ATOM
      1 O           0.9500   -2.0480   -0.0710 o         1 2YO     -0.489100
      2 C1          1.8000   -1.1510   -0.0380 c         1 2YO      0.700100
      3 N1          2.3290   -0.6790    1.1950 nc        1 2YO     -0.641100
      4 C2          2.3100   -0.5240   -1.2980 ca        1 2YO     -0.232600
      5 C15         3.3030    0.5170   -1.2110 ca        1 2YO      0.249600
      6 N6          3.7490    0.8970    0.0480 na        1 2YO     -0.732600
      7 C           3.2230    0.2650    1.1810 cd        1 2YO      0.678100
      8 C14         3.8100    1.1310   -2.3740 ca        1 2YO     -0.231000
      9 C13         3.3070    0.6890   -3.5960 ca        1 2YO      0.030800
     10 C4          2.3030   -0.3630   -3.6900 ca        1 2YO      0.003400
     11 C3          1.8150   -0.9590   -2.5140 ca        1 2YO      0.058000
     12 N5          3.5790    1.0950   -4.9040 na        1 2YO     -0.263300
     13 C5          2.7630    0.2670   -5.7300 cc        1 2YO      0.368700
     14 N2          1.9850   -0.6030   -5.0300 nd        1 2YO     -0.449100
     15 N3          2.7450    0.3720   -7.1890 n4        1 2YO     -0.673000
     16 C6          4.0490   -0.0430   -7.7960 c3        1 2YO      0.088800
     17 C7          3.9670   -0.0650   -9.3470 c3        1 2YO      0.169800
     18 N4          5.2750   -0.3690   -9.8800 n3        1 2YO     -0.753600
     19 C12         5.6790    0.5110  -10.9710 c3        1 2YO      0.177300
     20 C11         7.0890    0.2180  -11.4800 c3        1 2YO     -0.077900
     21 C10         7.2540   -1.2440  -11.8300 c3        1 2YO     -0.083400
     22 C9          6.8720   -2.1160  -10.6540 c3        1 2YO     -0.077900
     23 C8          5.4650   -1.7870  -10.1600 c3        1 2YO      0.177300
     24 H1          4.4300    1.6150    0.1370 hn        1 2YO      0.467800
     25 H2          3.6300    0.6270    2.1540 h5        1 2YO      0.076800
     26 H3          4.5660    1.9270   -2.3210 ha        1 2YO      0.161000
     27 H4          1.0500   -1.7580   -2.5500 ha        1 2YO      0.199000
     28 H5          4.2910    1.7130   -5.1960 hn        1 2YO      0.326700
     29 H7          1.9930   -0.2410   -7.5440 hn        1 2YO      0.471800
     30 H8          4.8430    0.6810   -7.4570 hx        1 2YO      0.116200
     31 H9          4.3030   -1.0700   -7.4040 hx        1 2YO      0.116200
     32 H10         3.6180    0.9450   -9.7060 h1        1 2YO      0.052200
     33 H11         3.1900   -0.8280   -9.6490 h1        1 2YO      0.052200
     34 H13         5.6460    1.5700  -10.5870 h1        1 2YO      0.035450
     35 H14         4.9600    0.4340  -11.8390 h1        1 2YO      0.035450
     36 H15         7.8410    0.5070  -10.7000 hc        1 2YO      0.059700
     37 H16         7.2710    0.8560  -12.3830 hc        1 2YO      0.059700
     38 H17         8.3180   -1.4460  -12.1210 hc        1 2YO      0.056200
     39 H18         6.6100   -1.4970  -12.7140 hc        1 2YO      0.056200
     40 H19         7.6100   -1.9730   -9.8220 hc        1 2YO      0.059700
     41 H20         6.8940   -3.1970  -10.9490 hc        1 2YO      0.059700
     42 H21         5.2730   -2.3500   -9.2030 h1        1 2YO      0.035450
     43 H22         4.7200   -2.1510  -10.9290 h1        1 2YO      0.035450
     44 H32         2.5230    1.3410   -7.4530 hn        1 2YO      0.471800
@<TRIPOS>BOND
     1    1    2 2   
     2    2    3 1   
     3    2    4 1   
     4    3    7 2   
     5    4    5 ar  
     6    4   11 ar  
     7    5    6 1   
     8    5    8 ar  
     9    6    7 1   
    10    6   24 1   
    11    7   25 1   
    12    8    9 ar  
    13    8   26 1   
    14    9   10 ar  
    15    9   12 1   
    16   10   11 ar  
    17   10   14 1   
    18   11   27 1   
    19   12   13 1   
    20   12   28 1   
    21   13   14 2   
    22   13   15 1   
    23   15   16 1   
    24   15   29 1   
    25   15   44 1   
    26   16   17 1   
    27   16   30 1   
    28   16   31 1   
    29   17   18 1   
    30   17   32 1   
    31   17   33 1   
    32   18   19 1   
    33   18   23 1   
    34   19   20 1   
    35   19   34 1   
    36   19   35 1   
    37   20   21 1   
    38   20   36 1   
    39   20   37 1   
    40   21   22 1   
    41   21   38 1   
    42   21   39 1   
    43   22   23 1   
    44   22   40 1   
    45   22   41 1   
    46   23   42 1   
    47   23   43 1   
@<TRIPOS>SUBSTRUCTURE
     1 2YO         1 TEMP              0 ****  ****    0 ROOT
