@<TRIPOS>MOLECULE
2YO
   43    46     1     0     0
SMALL
bcc


@<TRIPOS>ATOM
      1 O           0.1660   -1.1650   -0.0840 o         1 2YO     -0.532100
      2 C1          1.3100   -0.6850   -0.0370 c         1 2YO      0.703100
      3 N1          1.9490   -0.4760    1.2180 nc        1 2YO     -0.680100
      4 C2          2.0560   -0.3120   -1.2700 ca        1 2YO     -0.230600
      5 C15         3.3730    0.2330   -1.1520 ca        1 2YO      0.184600
      6 N6          3.9110    0.3980    0.1300 na        1 2YO     -0.736600
      7 C           3.1520    0.0280    1.2330 cd        1 2YO      0.671100
      8 C14         4.1140    0.5980   -2.2920 ca        1 2YO     -0.207000
      9 C13         3.5080    0.4070   -3.5310 ca        1 2YO     -0.017200
     10 C4          2.1680   -0.1450   -3.6620 ca        1 2YO      0.050400
     11 C3          1.4590   -0.5000   -2.5160 ca        1 2YO      0.013000
     12 N5          3.9750    0.6210   -4.8300 na        1 2YO     -0.295300
     13 C5          2.8900    0.2660   -5.7030 cc        1 2YO      0.590700
     14 N2          1.8180   -0.2320   -5.0250 nd        1 2YO     -0.590100
     15 N3          2.9580    0.5000   -7.0960 nh        1 2YO     -0.764200
     16 C6          4.2140    0.1460   -7.7350 c3        1 2YO      0.166800
     17 C7          4.0660    0.0740   -9.2740 c3        1 2YO      0.166800
     18 N4          5.3470   -0.1730   -9.9180 n3        1 2YO     -0.736600
     19 C12         5.4220    0.4240  -11.2460 c3        1 2YO      0.172300
     20 C11         6.7630    0.1890  -11.9370 c3        1 2YO     -0.077400
     21 C10         7.1160   -1.2820  -11.9630 c3        1 2YO     -0.079400
     22 C9          7.0650   -1.8600  -10.5650 c3        1 2YO     -0.077400
     23 C8          5.7160   -1.5830   -9.9060 c3        1 2YO      0.172300
     24 H1          4.8230    0.7720    0.2340 hn        1 2YO      0.452800
     25 H2          3.6420    0.1870    2.2200 h5        1 2YO      0.050800
     26 H3          5.1260    1.0140   -2.2110 ha        1 2YO      0.140000
     27 H4          0.4420   -0.9240   -2.5760 ha        1 2YO      0.180000
     28 H5          4.7470    1.1790   -5.0810 hn        1 2YO      0.307700
     29 H7          2.1570    0.1190   -7.5670 hn        1 2YO      0.416800
     30 H8          4.9640    0.9460   -7.4760 h1        1 2YO      0.050700
     31 H9          4.6140   -0.8380   -7.3540 h1        1 2YO      0.050700
     32 H10         3.3080   -0.7230   -9.5310 h1        1 2YO      0.042200
     33 H11         3.6580    1.0600   -9.6370 h1        1 2YO      0.042200
     34 H13         5.2690    1.5340  -11.1270 h1        1 2YO      0.030950
     35 H14         4.6010    0.0340  -11.9180 h1        1 2YO      0.030950
     36 H15         7.5680    0.7590  -11.4030 hc        1 2YO      0.048700
     37 H16         6.6950    0.5890  -12.9810 hc        1 2YO      0.048700
     38 H17         8.1410   -1.4200  -12.3940 hc        1 2YO      0.042200
     39 H18         6.3960   -1.8310  -12.6240 hc        1 2YO      0.042200
     40 H19         7.8880   -1.4180   -9.9440 hc        1 2YO      0.048700
     41 H20         7.2200   -2.9690  -10.5990 hc        1 2YO      0.048700
     42 H21         4.9320   -2.2170  -10.4190 h1        1 2YO      0.030950
     43 H22         5.7650   -1.9110   -8.8290 h1        1 2YO      0.030950
@<TRIPOS>BOND
     1    1    2 2   
     2    2    3 1   
     3    2    4 1   
     4    3    7 2   
     5    4    5 ar  
     6    4   11 ar  
     7    5    6 1   
     8    5    8 ar  
     9    6    7 1   
    10    6   24 1   
    11    7   25 1   
    12    8    9 ar  
    13    8   26 1   
    14    9   10 ar  
    15    9   12 1   
    16   10   11 ar  
    17   10   14 1   
    18   11   27 1   
    19   12   13 1   
    20   12   28 1   
    21   13   14 2   
    22   13   15 1   
    23   15   16 1   
    24   15   29 1   
    25   16   17 1   
    26   16   30 1   
    27   16   31 1   
    28   17   18 1   
    29   17   32 1   
    30   17   33 1   
    31   18   19 1   
    32   18   23 1   
    33   19   20 1   
    34   19   34 1   
    35   19   35 1   
    36   20   21 1   
    37   20   36 1   
    38   20   37 1   
    39   21   22 1   
    40   21   38 1   
    41   21   39 1   
    42   22   23 1   
    43   22   40 1   
    44   22   41 1   
    45   23   42 1   
    46   23   43 1   
@<TRIPOS>SUBSTRUCTURE
     1 2YO         1 TEMP              0 ****  ****    0 ROOT
