@<TRIPOS>MOLECULE
2YO
   43    46     1     0     0
SMALL
bcc


@<TRIPOS>ATOM
      1 O           0.1820   -1.2140   -0.0810 o         1 2YO     -0.532100
      2 C1          1.3160   -0.7120   -0.0360 c         1 2YO      0.703100
      3 N1          1.9510   -0.4850    1.2180 nc        1 2YO     -0.680100
      4 C2          2.0560   -0.3310   -1.2700 ca        1 2YO     -0.230600
      5 C15         3.3620    0.2400   -1.1550 ca        1 2YO      0.184600
      6 N6          3.8960    0.4220    0.1270 na        1 2YO     -0.736600
      7 C           3.1440    0.0420    1.2310 cd        1 2YO      0.671100
      8 C14         4.0960    0.6140   -2.2960 ca        1 2YO     -0.207000
      9 C13         3.4950    0.4050   -3.5340 ca        1 2YO     -0.017200
     10 C4          2.1660   -0.1730   -3.6630 ca        1 2YO      0.050400
     11 C3          1.4630   -0.5360   -2.5160 ca        1 2YO      0.013000
     12 N5          3.9580    0.6220   -4.8350 na        1 2YO     -0.295300
     13 C5          2.8800    0.2420   -5.7060 cc        1 2YO      0.590700
     14 N2          1.8180   -0.2720   -5.0260 nd        1 2YO     -0.590100
     15 N3          2.9450    0.4710   -7.1000 nu        1 2YO     -0.764200
     16 C6          4.2070    0.1370   -7.7370 c3        1 2YO      0.166800
     17 C7          4.0620    0.0570   -9.2760 c3        1 2YO      0.166800
     18 N4          5.3470   -0.1710   -9.9180 n3        1 2YO     -0.736600
     19 C12         5.4120    0.4230  -11.2480 c3        1 2YO      0.172300
     20 C11         6.7580    0.2090  -11.9370 c3        1 2YO     -0.077400
     21 C10         7.1370   -1.2560  -11.9570 c3        1 2YO     -0.079400
     22 C9          7.0950   -1.8290  -10.5570 c3        1 2YO     -0.077400
     23 C8          5.7410   -1.5740   -9.9000 c3        1 2YO      0.172300
     24 H1          4.8010    0.8140    0.2290 hn        1 2YO      0.452800
     25 H2          3.6300    0.2150    2.2170 h5        1 2YO      0.050800
     26 H3          5.1000    1.0500   -2.2170 ha        1 2YO      0.140000
     27 H4          0.4540   -0.9800   -2.5740 ha        1 2YO      0.180000
     28 H5          4.7190    1.1940   -5.0880 hn        1 2YO      0.307700
     29 H7          2.1510    0.0730   -7.5690 hn        1 2YO      0.416800
     30 H8          4.6250   -0.8380   -7.3510 h1        1 2YO      0.050700
     31 H9          4.9420    0.9520   -7.4810 h1        1 2YO      0.050700
     32 H10         3.6360    1.0340   -9.6430 h1        1 2YO      0.042200
     33 H11         3.3170   -0.7550   -9.5300 h1        1 2YO      0.042200
     34 H13         4.5990    0.0160  -11.9190 h1        1 2YO      0.030950
     35 H14         5.2390    1.5300  -11.1340 h1        1 2YO      0.030950
     36 H15         6.6840    0.6030  -12.9830 hc        1 2YO      0.048700
     37 H16         7.5520    0.7950  -11.4050 hc        1 2YO      0.048700
     38 H17         6.4270   -1.8200  -12.6170 hc        1 2YO      0.042200
     39 H18         8.1650   -1.3770  -12.3870 hc        1 2YO      0.042200
     40 H19         7.2700   -2.9350  -10.5860 hc        1 2YO      0.048700
     41 H20         7.9090   -1.3700   -9.9380 hc        1 2YO      0.048700
     42 H21         5.7950   -1.8970   -8.8220 h1        1 2YO      0.030950
     43 H22         4.9690   -2.2230  -10.4110 h1        1 2YO      0.030950
@<TRIPOS>BOND
     1    1    2 2   
     2    2    3 1   
     3    2    4 1   
     4    3    7 2   
     5    4    5 ar  
     6    4   11 ar  
     7    5    6 1   
     8    5    8 ar  
     9    6    7 1   
    10    6   24 1   
    11    7   25 1   
    12    8    9 ar  
    13    8   26 1   
    14    9   10 ar  
    15    9   12 1   
    16   10   11 ar  
    17   10   14 1   
    18   11   27 1   
    19   12   13 1   
    20   12   28 1   
    21   13   14 2   
    22   13   15 1   
    23   15   16 1   
    24   15   29 1   
    25   16   17 1   
    26   16   30 1   
    27   16   31 1   
    28   17   18 1   
    29   17   32 1   
    30   17   33 1   
    31   18   19 1   
    32   18   23 1   
    33   19   20 1   
    34   19   34 1   
    35   19   35 1   
    36   20   21 1   
    37   20   36 1   
    38   20   37 1   
    39   21   22 1   
    40   21   38 1   
    41   21   39 1   
    42   22   23 1   
    43   22   40 1   
    44   22   41 1   
    45   23   42 1   
    46   23   43 1   
@<TRIPOS>SUBSTRUCTURE
     1 2YO         1 TEMP              0 ****  ****    0 ROOT
