@<TRIPOS>MOLECULE
2YQ
   42    45     1     0     0
SMALL
bcc


@<TRIPOS>ATOM
      1 N1         -0.3580   -0.7870   -0.3380 nc        1 2YQ     -0.438300
      2 N3          3.9120    0.3150   -0.0120 nu        1 2YQ     -0.418400
      3 C4         -0.5830   -0.5730    2.0560 c         1 2YQ      0.684100
      4 C5          1.6010   -0.5140   -1.6610 c3        1 2YQ     -0.132000
      5 C6          4.4020    1.3940   -0.5480 cg        1 2YQ     -0.073000
      6 C7          3.0050    0.1960    1.0950 ca        1 2YQ      0.075600
      7 C8          3.5340    0.4510    2.3700 ca        1 2YQ     -0.134000
      8 C10         1.3760    0.0310    3.3970 ca        1 2YQ     -0.107000
      9 C13         2.7400    4.7570   -0.3780 ca        1 2YQ     -0.155500
     10 C15         4.9500    4.8950    0.6480 ca        1 2YQ     -0.155500
     11 C17         2.1550   -1.8730   -1.9250 cc        1 2YQ      0.405800
     12 C14         3.7500    5.5120    0.2460 ca        1 2YQ      0.115900
     13 C12         2.9320    3.3960   -0.5850 ca        1 2YQ     -0.103000
     14 C16         5.1310    3.5360    0.4240 ca        1 2YQ     -0.103000
     15 C11         4.1230    2.7730   -0.1860 ca        1 2YQ     -0.106000
     16 N6          3.2980   -2.4070   -1.4190 nd        1 2YQ     -0.712000
     17 C18         3.3450   -3.6920   -1.9720 cd        1 2YQ      0.510900
     18 N5          2.2820   -3.9580   -2.7850 nc        1 2YQ     -0.512800
     19 N4          1.5380   -2.8420   -2.7580 na        1 2YQ     -0.033400
     20 C19         0.3140   -2.6530   -3.4970 c3        1 2YQ      0.029600
     21 C3          0.9360   -0.4800   -0.3070 cd        1 2YQ      0.359900
     22 C2          1.6380   -0.1640    0.9470 ca        1 2YQ     -0.094900
     23 C9          2.7280    0.3700    3.5190 ca        1 2YQ      0.133900
     24 F1          3.2640    0.6200    4.7350 f         1 2YQ     -0.123900
     25 C1          0.8550   -0.2270    2.1270 ca        1 2YQ     -0.118600
     26 O          -1.3540   -0.6510    3.0250 o         1 2YQ     -0.600500
     27 N2         -1.0790   -0.8210    0.7590 ns        1 2YQ     -0.290900
     28 H1          4.2210   -0.5670   -0.3870 hn        1 2YQ      0.493800
     29 H2          2.4040    0.2620   -1.7460 hc        1 2YQ      0.090200
     30 H3          0.8520   -0.2580   -2.4670 hc        1 2YQ      0.090200
     31 H4          4.5960    0.7250    2.4930 ha        1 2YQ      0.166000
     32 H5          0.7240   -0.0330    4.2850 ha        1 2YQ      0.184000
     33 H7          5.7350    5.4950    1.1310 ha        1 2YQ      0.149000
     34 H8          2.1440    2.8070   -1.0770 ha        1 2YQ      0.137000
     35 H9          6.0760    3.0540    0.7190 ha        1 2YQ      0.137000
     36 H10         4.1540   -4.4010   -1.7660 h5        1 2YQ      0.075100
     37 H11         0.4840   -1.8930   -4.3060 h1        1 2YQ      0.067700
     38 H12        -0.0170   -3.6190   -3.9630 h1        1 2YQ      0.067700
     39 H13        -0.4820   -2.2840   -2.7970 h1        1 2YQ      0.067700
     40 H14        -2.0440   -1.0630    0.6300 hn        1 2YQ      0.364500
     41 H6          1.8090    5.2490   -0.6930 ha        1 2YQ      0.149000
     42 F2          3.5690    6.8380    0.4590 f         1 2YQ     -0.141900
@<TRIPOS>BOND
     1    1   21 2   
     2    1   27 1   
     3    2    5 3   
     4    2    6 1   
     5    2   28 1   
     6    3   25 1   
     7    3   26 2   
     8    3   27 1   
     9    4   11 1   
    10    4   21 1   
    11    4   29 1   
    12    4   30 1   
    13    5   15 1   
    14    6    7 ar  
    15    6   22 ar  
    16    7   23 ar  
    17    7   31 1   
    18    8   23 ar  
    19    8   25 ar  
    20    8   32 1   
    21    9   12 ar  
    22    9   13 ar  
    23    9   41 1   
    24   10   12 ar  
    25   10   14 ar  
    26   10   33 1   
    27   11   16 2   
    28   11   19 1   
    29   12   42 1   
    30   13   15 ar  
    31   13   34 1   
    32   14   15 ar  
    33   14   35 1   
    34   16   17 1   
    35   17   18 2   
    36   17   36 1   
    37   18   19 1   
    38   19   20 1   
    39   20   37 1   
    40   20   38 1   
    41   20   39 1   
    42   21   22 1   
    43   22   25 ar  
    44   23   24 1   
    45   27   40 1   
@<TRIPOS>SUBSTRUCTURE
     1 2YQ         1 TEMP              0 ****  ****    0 ROOT
