@<TRIPOS>MOLECULE
2YQ
   42    45     1     0     0
SMALL
bcc


@<TRIPOS>ATOM
      1 N1         -0.3170   -0.7580   -0.4620 nc        1 2YQ     -0.438300
      2 N3          3.9280    0.3710    0.0460 nh        1 2YQ     -0.418400
      3 C4         -0.6450   -0.5470    1.9210 c         1 2YQ      0.684100
      4 C5          1.6950   -0.4760   -1.7000 c3        1 2YQ     -0.132000
      5 C6          4.4290    1.4540   -0.4690 cg        1 2YQ     -0.073000
      6 C7          2.9760    0.2430    1.1130 ca        1 2YQ      0.075600
      7 C8          3.4490    0.4990    2.4100 ca        1 2YQ     -0.134000
      8 C10         1.2520    0.0650    3.3440 ca        1 2YQ     -0.107000
      9 C13         2.7310    4.8030   -0.3770 ca        1 2YQ     -0.155500
     10 C15         4.8890    4.9600    0.7530 ca        1 2YQ     -0.155500
     11 C17         2.2700   -1.8310   -1.9370 cc        1 2YQ      0.405800
     12 C14         3.7040    5.5660    0.2940 ca        1 2YQ      0.115900
     13 C12         2.9450    3.4440   -0.5750 ca        1 2YQ     -0.103500
     14 C16         5.0920    3.6030    0.5370 ca        1 2YQ     -0.103500
     15 C11         4.1210    2.8310   -0.1200 ca        1 2YQ     -0.105000
     16 N6          3.3950   -2.3560   -1.3830 nd        1 2YQ     -0.712000
     17 C18         3.4730   -3.6420   -1.9300 cd        1 2YQ      0.510900
     18 N5          2.4480   -3.9170   -2.7870 nc        1 2YQ     -0.512800
     19 N4          1.6950   -2.8060   -2.7930 na        1 2YQ     -0.033400
     20 C19         0.5020   -2.6270   -3.5840 c3        1 2YQ      0.029600
     21 C3          0.9720   -0.4440   -0.3750 cd        1 2YQ      0.359900
     22 C2          1.6190   -0.1250    0.9070 ca        1 2YQ     -0.094900
     23 C9          2.5950    0.4100    3.5240 ca        1 2YQ      0.133900
     24 F1          3.0790    0.6610    4.7620 f         1 2YQ     -0.123900
     25 C1          0.7860   -0.1940    2.0540 ca        1 2YQ     -0.118600
     26 O          -1.4560   -0.6310    2.8560 o         1 2YQ     -0.600500
     27 N2         -1.0840   -0.7960    0.6040 n         1 2YQ     -0.290900
     28 H1          4.2610   -0.5080   -0.3150 hn        1 2YQ      0.493800
     29 H2          2.4960    0.3060   -1.7520 hc        1 2YQ      0.090200
     30 H3          0.9800   -0.2260   -2.5370 hc        1 2YQ      0.090200
     31 H4          4.5030    0.7790    2.5790 ha        1 2YQ      0.166000
     32 H5          0.5630   -0.0040    4.2040 ha        1 2YQ      0.184000
     33 H7          5.6440    5.5670    1.2720 ha        1 2YQ      0.149000
     34 H8          2.1870    2.8470   -1.1040 ha        1 2YQ      0.137000
     35 H9          6.0260    3.1300    0.8770 ha        1 2YQ      0.137000
     36 H10         4.2780   -4.3450   -1.6900 h5        1 2YQ      0.075100
     37 H11        -0.3250   -2.2610   -2.9190 h1        1 2YQ      0.067700
     38 H12         0.7010   -1.8670   -4.3870 h1        1 2YQ      0.067700
     39 H13         0.1970   -3.5960   -4.0610 h1        1 2YQ      0.067700
     40 H14        -2.0420   -1.0430    0.4340 hn        1 2YQ      0.364500
     41 H6          1.8120    5.2870   -0.7360 ha        1 2YQ      0.149000
     42 F2          3.5010    6.8900    0.4980 f         1 2YQ     -0.141900
@<TRIPOS>BOND
     1    1   21 2   
     2    1   27 1   
     3    2    5 3   
     4    2    6 1   
     5    2   28 1   
     6    3   25 1   
     7    3   26 2   
     8    3   27 1   
     9    4   11 1   
    10    4   21 1   
    11    4   29 1   
    12    4   30 1   
    13    5   15 1   
    14    6    7 ar  
    15    6   22 ar  
    16    7   23 ar  
    17    7   31 1   
    18    8   23 ar  
    19    8   25 ar  
    20    8   32 1   
    21    9   12 ar  
    22    9   13 ar  
    23    9   41 1   
    24   10   12 ar  
    25   10   14 ar  
    26   10   33 1   
    27   11   16 2   
    28   11   19 1   
    29   12   42 1   
    30   13   15 ar  
    31   13   34 1   
    32   14   15 ar  
    33   14   35 1   
    34   16   17 1   
    35   17   18 2   
    36   17   36 1   
    37   18   19 1   
    38   19   20 1   
    39   20   37 1   
    40   20   38 1   
    41   20   39 1   
    42   21   22 1   
    43   22   25 ar  
    44   23   24 1   
    45   27   40 1   
@<TRIPOS>SUBSTRUCTURE
     1 2YQ         1 TEMP              0 ****  ****    0 ROOT
