@<TRIPOS>MOLECULE
2YQ
   42    45     1     0     0
SMALL
bcc


@<TRIPOS>ATOM
      1 N1         -0.3910   -1.8020    0.8200 nc        1 2YQ     -0.416300
      2 N3          3.2110    0.4550   -0.2720 nh        1 2YQ     -0.407400
      3 C4         -0.0120   -1.2580    3.1430 c         1 2YQ      0.683100
      4 C5          0.7230   -0.8920   -1.0830 c3        1 2YQ     -0.119000
      5 C6          3.7290    1.4350   -0.9540 cg        1 2YQ     -0.070000
      6 C7          2.6390    0.4470    1.0400 ca        1 2YQ      0.072600
      7 C8          3.3020    1.1720    2.0420 ca        1 2YQ     -0.144000
      8 C10         1.7700    0.3280    3.7260 ca        1 2YQ     -0.111000
      9 C13         2.9170    5.0810   -0.6360 ca        1 2YQ     -0.152500
     10 C15         5.2330    4.7140    0.0420 ca        1 2YQ     -0.152500
     11 C17         1.6180   -1.9280   -1.6760 cc        1 2YQ      0.489300
     12 C14         4.1550    5.5870   -0.1980 ca        1 2YQ      0.112900
     13 C12         2.7650    3.7120   -0.8250 ca        1 2YQ     -0.109000
     14 C16         5.0660    3.3490   -0.1560 ca        1 2YQ     -0.109000
     15 C11         3.8330    2.8350   -0.5850 ca        1 2YQ     -0.103000
     16 N6          2.2800   -2.9330   -0.9320 nc        1 2YQ     -0.682000
     17 C18         2.9210   -3.6560   -1.8720 cd        1 2YQ      0.401400
     18 N5          2.6560   -3.1110   -3.1450 na        1 2YQ     -0.046400
     19 N4          1.8530   -2.0440   -3.0250 nd        1 2YQ     -0.501800
     20 C19         3.1820   -3.6000   -4.3960 c3        1 2YQ      0.037600
     21 C3          0.6050   -1.0210    0.4130 cd        1 2YQ      0.366900
     22 C2          1.4740   -0.3040    1.3580 ca        1 2YQ     -0.100900
     23 C9          2.8610    1.1310    3.3770 ca        1 2YQ      0.133900
     24 F1          3.5120    1.8500    4.3200 f         1 2YQ     -0.125900
     25 C1          1.1050   -0.3810    2.7240 ca        1 2YQ     -0.115600
     26 O          -0.3900   -1.4270    4.3140 o         1 2YQ     -0.608500
     27 N2         -0.6690   -1.9370    2.0980 n         1 2YQ     -0.289900
     28 H1          3.2250   -0.4480   -0.7120 hn        1 2YQ      0.473800
     29 H2          1.0600    0.1400   -1.3650 hc        1 2YQ      0.086200
     30 H3         -0.2960   -1.0160   -1.5580 hc        1 2YQ      0.086200
     31 H4          4.1850    1.7880    1.7970 ha        1 2YQ      0.169000
     32 H5          1.4360    0.2460    4.7740 ha        1 2YQ      0.183000
     33 H7          6.1970    5.1210    0.3800 ha        1 2YQ      0.149000
     34 H8          1.8000    3.3170   -1.1750 ha        1 2YQ      0.139500
     35 H9          5.9130    2.6670    0.0150 ha        1 2YQ      0.139500
     36 H10         3.5500   -4.5370   -1.7060 h5        1 2YQ      0.074100
     37 H11         3.8020   -4.5100   -4.1880 h1        1 2YQ      0.064700
     38 H12         2.3400   -3.8680   -5.0890 h1        1 2YQ      0.064700
     39 H13         3.8180   -2.8120   -4.8810 h1        1 2YQ      0.064700
     40 H14        -1.4190   -2.5710    2.3060 hn        1 2YQ      0.364500
     41 H6          2.0830    5.7710   -0.8240 ha        1 2YQ      0.149000
     42 F2          4.3100    6.9200   -0.0080 f         1 2YQ     -0.141900
@<TRIPOS>BOND
     1    1   21 2   
     2    1   27 1   
     3    2    5 3   
     4    2    6 1   
     5    2   28 1   
     6    3   25 1   
     7    3   26 2   
     8    3   27 1   
     9    4   11 1   
    10    4   21 1   
    11    4   29 1   
    12    4   30 1   
    13    5   15 1   
    14    6    7 ar  
    15    6   22 ar  
    16    7   23 ar  
    17    7   31 1   
    18    8   23 ar  
    19    8   25 ar  
    20    8   32 1   
    21    9   12 ar  
    22    9   13 ar  
    23    9   41 1   
    24   10   12 ar  
    25   10   14 ar  
    26   10   33 1   
    27   11   16 1   
    28   11   19 2   
    29   12   42 1   
    30   13   15 ar  
    31   13   34 1   
    32   14   15 ar  
    33   14   35 1   
    34   16   17 2   
    35   17   18 1   
    36   17   36 1   
    37   18   19 1   
    38   18   20 1   
    39   20   37 1   
    40   20   38 1   
    41   20   39 1   
    42   21   22 1   
    43   22   25 ar  
    44   23   24 1   
    45   27   40 1   
@<TRIPOS>SUBSTRUCTURE
     1 2YQ         1 TEMP              0 ****  ****    0 ROOT
