@<TRIPOS>MOLECULE
2YR
   39    38     1     0     0
SMALL
bcc


@<TRIPOS>ATOM
      1 P           2.7480    0.7090   -1.5120 p3        1 2YR      2.462000
      2 OP1         4.2280    0.7520   -1.4830 o         1 2YR     -1.152333
      3 OP2         2.0310    0.1580   -0.3520 o         1 2YR     -1.152333
      4 O5'         2.3100    3.0220   -1.5550 oh        1 2YR     -0.414000
      5 C5'         1.3850    4.0210   -1.1410 c3        1 2YR     -0.017000
      6 C4'         0.0110    3.8100   -1.7710 c3        1 2YR     -0.073000
      7 O4'        -0.9190    4.7790   -1.2520 os        1 2YR     -0.239000
      8 C3'         0.0290    3.9640   -3.3060 c3        1 2YR      0.003000
      9 O3'        -0.2530    2.7520   -3.9790 oh        1 2YR     -0.364000
     10 C2'        -1.0790    4.9880   -3.6000 c3        1 2YR     -0.149000
     11 C1'        -1.4110    5.6240   -2.2560 c2        1 2YR     -0.176000
     12 N1         -1.0210    7.0150   -2.0730 n         1 2YR     -0.075000
     13 C2          0.3430    7.4970   -2.3810 c2        1 2YR      0.192000
     14 O2          1.1840    6.8300   -3.0160 o         1 2YR     -0.347000
     15 N3          0.7890    8.8230   -1.9650 n2        1 2YR     -0.249000
     16 C4         -0.0980    9.6350   -1.5070 c2        1 2YR     -0.051000
     17 N4          4.7740    9.0620   -4.1780 n2        1 2YR     -0.149000
     18 C5         -1.5500    9.3180   -1.3720 c3        1 2YR     -0.246000
     19 C6         -1.9080    7.8760   -1.6190 c1        1 2YR     -0.093000
     20 S           7.1770    0.4930   -1.3790 sh        1 2YR     -0.314000
     21 C8          5.4640    8.1110   -3.2790 cx        1 2YR     -0.236000
     22 C9          4.0230    8.2210   -3.5550 cu        1 2YR     -0.104000
     23 H3          2.2690    2.9730   -2.5270 ho        1 2YR      0.246000
     24 H4          1.7880    5.0320   -1.4150 h1        1 2YR      0.082500
     25 H5          1.3250    3.9230   -0.0260 h1        1 2YR      0.082500
     26 H6         -0.3870    2.8010   -1.4790 h1        1 2YR      0.109000
     27 H7          0.3940    2.0970   -3.6650 ho        1 2YR      0.245000
     28 H8          1.0260    4.3570   -3.6520 h1        1 2YR      0.069000
     29 H9         -1.9950    4.4640   -3.9680 hc        1 2YR      0.074000
     30 H10        -0.7470    5.7150   -4.3780 hc        1 2YR      0.074000
     31 H11         0.2460   10.6340   -1.1720 h4        1 2YR      0.105000
     32 H12        -1.8970    9.5650   -0.3340 hc        1 2YR      0.108500
     33 H13        -2.1450    9.9390   -2.0910 hc        1 2YR      0.108500
     34 H14         6.1910    0.2250   -0.5030 hs        1 2YR      0.155500
     35 H15         6.3130    0.9900   -2.2860 hs        1 2YR      0.155500
     36 H16         5.9030    8.4920   -2.3350 h1        1 2YR      0.102000
     37 H17         6.0790    7.3030   -3.7240 h1        1 2YR      0.102000
     38 H18         3.0150    7.8520   -3.3640 h4        1 2YR      0.277000
     39 OP3         2.0610    0.9620   -2.8000 o         1 2YR     -1.152333
@<TRIPOS>BOND
     1    1    2 1   
     2    1    3 1   
     3    1   39 1   
     4    4    5 1   
     5    4   23 1   
     6    5    6 1   
     7    5   24 1   
     8    5   25 1   
     9    6    7 1   
    10    6    8 1   
    11    6   26 1   
    12    7   11 1   
    13    8    9 1   
    14    8   10 1   
    15    8   28 1   
    16    9   27 1   
    17   10   11 1   
    18   10   29 1   
    19   10   30 1   
    20   11   12 1   
    21   12   13 1   
    22   12   19 1   
    23   13   14 1   
    24   13   15 1   
    25   15   16 1   
    26   16   18 1   
    27   16   31 1   
    28   17   21 1   
    29   17   22 1   
    30   18   19 1   
    31   18   32 1   
    32   18   33 1   
    33   20   34 1   
    34   20   35 1   
    35   21   22 1   
    36   21   36 1   
    37   21   37 1   
    38   22   38 1   
@<TRIPOS>SUBSTRUCTURE
     1 2YR         1 TEMP              0 ****  ****    0 ROOT
