@<TRIPOS>MOLECULE
2YU
   16    16     1     0     0
SMALL
bcc


@<TRIPOS>ATOM
      1 S1          0.0980   -0.3430   -0.1320 s         1 2YU     -0.535400
      2 C1          1.6890   -0.1910   -0.0690 c         1 2YU      0.374600
      3 C2          2.4280   -0.1420    1.1680 cc        1 2YU     -0.208200
      4 C3          3.7930   -0.0110    1.2110 cd        1 2YU      0.006800
      5 C6          4.5350    0.0370    2.4900 c3        1 2YU     -0.068900
      6 C4          4.5200    0.0820   -0.0130 cd        1 2YU     -0.218000
      7 C5          3.8450    0.0390   -1.2100 cc        1 2YU      0.017600
      8 N1          2.4670   -0.0940   -1.2370 n         1 2YU     -0.125500
      9 O1          1.9270   -0.1240   -2.4520 oh        1 2YU     -0.400100
     10 H1          1.8250   -0.2180    2.0870 ha        1 2YU      0.176000
     11 H2          5.2760   -0.8010    2.5350 hc        1 2YU      0.057033
     12 H3          3.8460   -0.0500    3.3650 hc        1 2YU      0.057033
     13 H4          5.0950    1.0030    2.5720 hc        1 2YU      0.057033
     14 H5          5.6130    0.1870   -0.0000 ha        1 2YU      0.160000
     15 H6          4.3430    0.1050   -2.1940 h4        1 2YU      0.180000
     16 H7          0.9450   -0.2210   -2.3320 ho        1 2YU      0.472000
@<TRIPOS>BOND
     1    1    2 2   
     2    2    3 1   
     3    2    8 1   
     4    3    4 2   
     5    3   10 1   
     6    4    5 1   
     7    4    6 1   
     8    5   11 1   
     9    5   12 1   
    10    5   13 1   
    11    6    7 2   
    12    6   14 1   
    13    7    8 1   
    14    7   15 1   
    15    8    9 1   
    16    9   16 1   
@<TRIPOS>SUBSTRUCTURE
     1 2YU         1 TEMP              0 ****  ****    0 ROOT
