@<TRIPOS>MOLECULE
2YU
   16    16     1     0     0
SMALL
bcc


@<TRIPOS>ATOM
      1 S1          0.0960   -0.3580   -0.1150 s         1 2YU     -0.535400
      2 C1          1.6870   -0.1980   -0.0600 c         1 2YU      0.374600
      3 C2          2.4330   -0.1450    1.1720 cc        1 2YU     -0.208200
      4 C3          3.7980   -0.0080    1.2080 cd        1 2YU      0.006800
      5 C6          4.5470    0.0450    2.4830 c3        1 2YU     -0.068900
      6 C4          4.5170    0.0870   -0.0200 cd        1 2YU     -0.218000
      7 C5          3.8360    0.0390   -1.2130 cc        1 2YU      0.017600
      8 N1          2.4590   -0.0990   -1.2330 n         1 2YU     -0.125500
      9 O1          1.9120   -0.1330   -2.4440 oh        1 2YU     -0.400100
     10 H1          1.8350   -0.2220    2.0950 ha        1 2YU      0.176000
     11 H2          3.8620   -0.0370    3.3620 hc        1 2YU      0.057033
     12 H3          5.2850   -0.7950    2.5280 hc        1 2YU      0.057033
     13 H4          5.1080    1.0100    2.5580 hc        1 2YU      0.057033
     14 H5          5.6090    0.1970   -0.0130 ha        1 2YU      0.160000
     15 H6          4.3280    0.1060   -2.2000 h4        1 2YU      0.180000
     16 H7          0.9310   -0.2340   -2.3190 ho        1 2YU      0.472000
@<TRIPOS>BOND
     1    1    2 2   
     2    2    3 1   
     3    2    8 1   
     4    3    4 2   
     5    3   10 1   
     6    4    5 1   
     7    4    6 1   
     8    5   11 1   
     9    5   12 1   
    10    5   13 1   
    11    6    7 2   
    12    6   14 1   
    13    7    8 1   
    14    7   15 1   
    15    8    9 1   
    16    9   16 1   
@<TRIPOS>SUBSTRUCTURE
     1 2YU         1 TEMP              0 ****  ****    0 ROOT
