@<TRIPOS>MOLECULE
2YV
   41    44     1     0     0
SMALL
bcc


@<TRIPOS>ATOM
      1 C1          0.0430    0.1440   -0.0020 ca        1 2YV     -0.172600
      2 C2          1.4310    0.2880   -0.0120 ca        1 2YV     -0.044000
      3 C3          2.0910    0.2220    1.2110 ca        1 2YV     -0.070200
      4 C4          1.3690    0.0080    2.4650 ca        1 2YV      0.143400
      5 C5         -0.0220   -0.1360    2.4540 ca        1 2YV     -0.043000
      6 C6         -0.6840   -0.0660    1.2140 ca        1 2YV      0.120400
      7 C7         -0.6810    0.2130   -1.2800 c         1 2YV      0.730100
      8 O8         -0.1910    0.3890   -2.4000 o         1 2YV     -0.557500
      9 N9         -2.0800   -0.2070    1.1960 nc        1 2YV     -0.535100
     10 C10        -2.6900   -0.1380    0.0300 cd        1 2YV      0.494800
     11 N11        -4.1840   -0.2930    0.0620 nz        1 2YV     -0.798600
     12 N12        -2.0960    0.0620   -1.2210 ns        1 2YV     -0.513400
     13 N13         3.4420    0.3060    1.5490 na        1 2YV     -0.292300
     14 N14         2.2620   -0.0210    3.5370 nc        1 2YV     -0.619100
     15 C15         3.5080    0.1830    2.9740 cd        1 2YV      0.676700
     16 N16         4.6880    0.3300    3.6830 nu        1 2YV     -0.797200
     17 C17         5.9620    0.1630    3.0210 c3        1 2YV      0.192800
     18 C18         7.1330    0.0770    4.0060 c3        1 2YV     -0.042100
     19 C19        10.8280   -0.2430    1.8590 ca        1 2YV     -0.117000
     20 C20        10.2550    1.0090    2.0820 ca        1 2YV     -0.124000
     21 C21         9.0500    1.1130    2.7760 ca        1 2YV     -0.123000
     22 C22         8.4100   -0.0370    3.2520 ca        1 2YV     -0.104300
     23 C23         8.9900   -1.2910    3.0280 ca        1 2YV     -0.123000
     24 C24        10.1950   -1.3920    2.3330 ca        1 2YV     -0.124000
     25 H1          1.9650    0.4470   -0.9640 ha        1 2YV      0.178000
     26 H2         -0.5720   -0.2980    3.3950 ha        1 2YV      0.181000
     27 H3         -4.6240    0.5540   -0.3130 hn        1 2YV      0.478133
     28 H4         -4.4950   -0.4340    1.0350 hn        1 2YV      0.478133
     29 H5         -2.6180    0.1050   -2.0680 hn        1 2YV      0.346500
     30 H6          4.1840    0.5460    0.9450 hn        1 2YV      0.324700
     31 H8          4.6410    0.0710    4.6480 hn        1 2YV      0.459800
     32 H9          5.9630   -0.7670    2.3800 h1        1 2YV      0.051700
     33 H10         6.1230    1.0520    2.3450 h1        1 2YV      0.051700
     34 H11         7.1550    0.9940    4.6550 hc        1 2YV      0.064200
     35 H12         7.0020   -0.8110    4.6800 hc        1 2YV      0.064200
     36 H15         8.6050    2.1030    2.9580 ha        1 2YV      0.132000
     37 H16         8.4990   -2.1990    3.4080 ha        1 2YV      0.132000
     38 H17        10.6480   -2.3800    2.1650 ha        1 2YV      0.140000
     39 H13        11.7800   -0.3240    1.3140 ha        1 2YV      0.141000
     40 H113       -4.4560   -1.1070   -0.5000 hn        1 2YV      0.478133
     41 H14        10.7560    1.9170    1.7140 ha        1 2YV      0.140000
@<TRIPOS>BOND
     1    1    2 ar  
     2    1    6 ar  
     3    1    7 1   
     4    2    3 ar  
     5    2   25 1   
     6    3    4 ar  
     7    3   13 1   
     8    4    5 ar  
     9    4   14 1   
    10    5    6 ar  
    11    5   26 1   
    12    6    9 1   
    13    7    8 2   
    14    7   12 1   
    15    9   10 2   
    16   10   11 1   
    17   10   12 1   
    18   11   27 1   
    19   11   28 1   
    20   11   40 1   
    21   12   29 1   
    22   13   15 1   
    23   13   30 1   
    24   14   15 2   
    25   15   16 1   
    26   16   17 1   
    27   16   31 1   
    28   17   18 1   
    29   17   32 1   
    30   17   33 1   
    31   18   22 1   
    32   18   34 1   
    33   18   35 1   
    34   19   20 ar  
    35   19   24 ar  
    36   19   39 1   
    37   20   21 ar  
    38   20   41 1   
    39   21   22 ar  
    40   21   36 1   
    41   22   23 ar  
    42   23   24 ar  
    43   23   37 1   
    44   24   38 1   
@<TRIPOS>SUBSTRUCTURE
     1 2YV         1 TEMP              0 ****  ****    0 ROOT
