@<TRIPOS>MOLECULE
2YV
   41    44     1     0     0
SMALL
bcc


@<TRIPOS>ATOM
      1 C1          0.0440    0.1400   -0.0020 ca        1 2YV     -0.172600
      2 C2          1.4320    0.2800   -0.0140 ca        1 2YV     -0.044000
      3 C3          2.0910    0.2230    1.2090 ca        1 2YV     -0.070200
      4 C4          1.3690    0.0210    2.4650 ca        1 2YV      0.143400
      5 C5         -0.0220   -0.1200    2.4550 ca        1 2YV     -0.043000
      6 C6         -0.6840   -0.0590    1.2160 ca        1 2YV      0.120400
      7 C7         -0.6810    0.2000   -1.2810 c         1 2YV      0.730100
      8 O8         -0.1900    0.3650   -2.4030 o         1 2YV     -0.557500
      9 N9         -2.0800   -0.1960    1.1990 nc        1 2YV     -0.535100
     10 C10        -2.6910   -0.1360    0.0320 cd        1 2YV      0.494800
     11 N11        -4.1850   -0.2870    0.0660 n4        1 2YV     -0.798600
     12 N12        -2.0960    0.0530   -1.2200 n         1 2YV     -0.513400
     13 N13         3.4430    0.3060    1.5470 na        1 2YV     -0.292300
     14 N14         2.2620   -0.0020    3.5380 nc        1 2YV     -0.619100
     15 C15         3.5090    0.1940    2.9720 cd        1 2YV      0.676700
     16 N16         4.6890    0.3450    3.6800 nh        1 2YV     -0.797200
     17 C17         5.9620    0.1680    3.0190 c3        1 2YV      0.192800
     18 C18         7.1330    0.0880    4.0050 c3        1 2YV     -0.042100
     19 C19        10.8270   -0.2620    1.8600 ca        1 2YV     -0.117000
     20 C20        10.2570    0.9940    2.0710 ca        1 2YV     -0.124000
     21 C21         9.0530    1.1070    2.7640 ca        1 2YV     -0.123000
     22 C22         8.4110   -0.0370    3.2510 ca        1 2YV     -0.104300
     23 C23         8.9870   -1.2940    3.0390 ca        1 2YV     -0.123000
     24 C24        10.1910   -1.4050    2.3460 ca        1 2YV     -0.124000
     25 H1          1.9650    0.4300   -0.9670 ha        1 2YV      0.178000
     26 H2         -0.5720   -0.2730    3.3980 ha        1 2YV      0.181000
     27 H3         -4.6230    0.5580   -0.3160 hn        1 2YV      0.478133
     28 H4         -4.4590   -1.1050   -0.4890 hn        1 2YV      0.478133
     29 H5         -2.6180    0.0890   -2.0670 hn        1 2YV      0.346500
     30 H6          4.1860    0.5390    0.9400 hn        1 2YV      0.324700
     31 H8          4.6420    0.0940    4.6470 hn        1 2YV      0.459800
     32 H9          5.9610   -0.7670    2.3860 h1        1 2YV      0.051700
     33 H10         6.1270    1.0520    2.3360 h1        1 2YV      0.051700
     34 H11         7.1590    1.0100    4.6450 hc        1 2YV      0.064200
     35 H12         7.0000   -0.7950    4.6860 hc        1 2YV      0.064200
     36 H15         8.6110    2.0990    2.9370 ha        1 2YV      0.132000
     37 H16         8.4940   -2.1980    3.4280 ha        1 2YV      0.132000
     38 H17        10.6420   -2.3960    2.1860 ha        1 2YV      0.140000
     39 H13        11.7790   -0.3510    1.3160 ha        1 2YV      0.141000
     40 H113       -4.4960   -0.4190    1.0400 hn        1 2YV      0.478133
     41 H14        10.7600    1.8970    1.6940 ha        1 2YV      0.140000
@<TRIPOS>BOND
     1    1    2 ar  
     2    1    6 ar  
     3    1    7 1   
     4    2    3 ar  
     5    2   25 1   
     6    3    4 ar  
     7    3   13 1   
     8    4    5 ar  
     9    4   14 1   
    10    5    6 ar  
    11    5   26 1   
    12    6    9 1   
    13    7    8 2   
    14    7   12 1   
    15    9   10 2   
    16   10   11 1   
    17   10   12 1   
    18   11   27 1   
    19   11   28 1   
    20   11   40 1   
    21   12   29 1   
    22   13   15 1   
    23   13   30 1   
    24   14   15 2   
    25   15   16 1   
    26   16   17 1   
    27   16   31 1   
    28   17   18 1   
    29   17   32 1   
    30   17   33 1   
    31   18   22 1   
    32   18   34 1   
    33   18   35 1   
    34   19   20 ar  
    35   19   24 ar  
    36   19   39 1   
    37   20   21 ar  
    38   20   41 1   
    39   21   22 ar  
    40   21   36 1   
    41   22   23 ar  
    42   23   24 ar  
    43   23   37 1   
    44   24   38 1   
@<TRIPOS>SUBSTRUCTURE
     1 2YV         1 TEMP              0 ****  ****    0 ROOT
