@<TRIPOS>MOLECULE
2YW
   47    50     1     0     0
SMALL
bcc


@<TRIPOS>ATOM
      1 C1          0.0350   -0.1210    0.0060 ca        1 2YW     -0.170600
      2 C2          1.4130   -0.3360   -0.0050 ca        1 2YW     -0.044000
      3 C3          2.0810   -0.2720    1.2140 ca        1 2YW     -0.070200
      4 C4          1.3760    0.0120    2.4640 ca        1 2YW      0.141400
      5 C5         -0.0050    0.2270    2.4540 ca        1 2YW     -0.041000
      6 C6         -0.6760    0.1590    1.2190 ca        1 2YW      0.120400
      7 C7         -0.6990   -0.1860   -1.2670 c         1 2YW      0.730100
      8 N8         -2.0620    0.3720    1.2020 nc        1 2YW     -0.536100
      9 C9         -2.6800    0.3050    0.0400 cd        1 2YW      0.495800
     10 N10        -4.1650    0.5390    0.0720 n4        1 2YW     -0.798600
     11 N11        -2.1040    0.0400   -1.2080 n         1 2YW     -0.513400
     12 N12         3.4280   -0.4140    1.5500 na        1 2YW     -0.291300
     13 N13         2.2760    0.0250    3.5320 nc        1 2YW     -0.616100
     14 C14         3.5070   -0.2580    2.9700 cd        1 2YW      0.672700
     15 N15         4.6820   -0.4490    3.6810 nh        1 2YW     -0.794200
     16 C16         5.9570   -0.3280    3.0110 c3        1 2YW      0.191800
     17 C17         7.1350   -0.2770    3.9900 c3        1 2YW     -0.048100
     18 O18        -0.2230   -0.4170   -2.3840 o         1 2YW     -0.556500
     19 C19        10.8150    0.0890    1.8250 ca        1 2YW     -0.122600
     20 C20        12.0700    0.2550    1.0740 c         1 2YW      0.640700
     21 O21        12.8560   -0.8660    1.0370 os        1 2YW     -0.437900
     22 C22        14.0930   -0.7500    0.3280 c3        1 2YW      0.126700
     23 C23         9.9710    1.1990    1.9660 ca        1 2YW     -0.067500
     24 C24         8.7750    1.0740    2.6680 ca        1 2YW     -0.141500
     25 C25         8.4110   -0.1550    3.2320 ca        1 2YW     -0.070300
     26 C26         9.2590   -1.2580    3.0930 ca        1 2YW     -0.141500
     27 C27        10.4590   -1.1390    2.3930 ca        1 2YW     -0.067500
     28 O28        12.4700    1.2660    0.4920 o         1 2YW     -0.533000
     29 H1          1.9330   -0.5470   -0.9540 ha        1 2YW      0.178000
     30 H2         -0.5410    0.4420    3.3920 ha        1 2YW      0.181000
     31 H3         -4.3950    1.3510   -0.5100 hn        1 2YW      0.478133
     32 H4         -4.6500   -0.2940   -0.2790 hn        1 2YW      0.478133
     33 H5         -2.6310    0.0030   -2.0510 hn        1 2YW      0.347500
     34 H6          4.1520   -0.7150    0.9500 hn        1 2YW      0.324700
     35 H8          4.6480   -0.1600    4.6380 hn        1 2YW      0.458800
     36 H9          5.9900    0.5980    2.3640 h1        1 2YW      0.052700
     37 H10         6.0830   -1.2260    2.3390 h1        1 2YW      0.052700
     38 H11         7.1460   -1.2040    4.6230 hc        1 2YW      0.068200
     39 H12         7.0240    0.6030    4.6800 hc        1 2YW      0.068200
     40 H13        14.7260    0.0430    0.7940 h1        1 2YW      0.055700
     41 H14        14.5530   -1.7630    0.4410 h1        1 2YW      0.055700
     42 H15        13.8960   -0.5040   -0.7430 h1        1 2YW      0.055700
     43 H16        10.2660    2.1630    1.5200 ha        1 2YW      0.164500
     44 H17         8.1180    1.9490    2.7860 ha        1 2YW      0.139500
     45 H18         8.9850   -2.2250    3.5420 ha        1 2YW      0.139500
     46 H19        11.1310   -2.0060    2.2870 ha        1 2YW      0.164500
     47 H103       -4.4630    0.7220    1.0420 hn        1 2YW      0.478133
@<TRIPOS>BOND
     1    1    2 ar  
     2    1    6 ar  
     3    1    7 1   
     4    2    3 ar  
     5    2   29 1   
     6    3    4 ar  
     7    3   12 1   
     8    4    5 ar  
     9    4   13 1   
    10    5    6 ar  
    11    5   30 1   
    12    6    8 1   
    13    7   11 1   
    14    7   18 2   
    15    8    9 2   
    16    9   10 1   
    17    9   11 1   
    18   10   31 1   
    19   10   32 1   
    20   10   47 1   
    21   11   33 1   
    22   12   14 1   
    23   12   34 1   
    24   13   14 2   
    25   14   15 1   
    26   15   16 1   
    27   15   35 1   
    28   16   17 1   
    29   16   36 1   
    30   16   37 1   
    31   17   25 1   
    32   17   38 1   
    33   17   39 1   
    34   19   20 1   
    35   19   23 ar  
    36   19   27 ar  
    37   20   21 1   
    38   20   28 2   
    39   21   22 1   
    40   22   40 1   
    41   22   41 1   
    42   22   42 1   
    43   23   24 ar  
    44   23   43 1   
    45   24   25 ar  
    46   24   44 1   
    47   25   26 ar  
    48   26   27 ar  
    49   26   45 1   
    50   27   46 1   
@<TRIPOS>SUBSTRUCTURE
     1 2YW         1 TEMP              0 ****  ****    0 ROOT
