@<TRIPOS>MOLECULE
2YW
   47    50     1     0     0
SMALL
bcc


@<TRIPOS>ATOM
      1 C1          0.0340   -0.1130    0.0070 ca        1 2YW     -0.170600
      2 C2          1.4130   -0.3250   -0.0060 ca        1 2YW     -0.044000
      3 C3          2.0810   -0.2720    1.2130 ca        1 2YW     -0.070200
      4 C4          1.3760   -0.0030    2.4660 ca        1 2YW      0.141400
      5 C5         -0.0050    0.2100    2.4580 ca        1 2YW     -0.041000
      6 C6         -0.6760    0.1540    1.2230 ca        1 2YW      0.120400
      7 C7         -0.6990   -0.1660   -1.2670 c         1 2YW      0.730100
      8 N8         -2.0630    0.3640    1.2080 nc        1 2YW     -0.536100
      9 C9         -2.6810    0.3070    0.0450 cd        1 2YW      0.495800
     10 N10        -4.1660    0.5390    0.0800 nz        1 2YW     -0.798600
     11 N11        -2.1040    0.0570   -1.2040 ns        1 2YW     -0.513400
     12 N12         3.4290   -0.4150    1.5470 na        1 2YW     -0.291300
     13 N13         2.2760    0.0010    3.5340 nc        1 2YW     -0.616100
     14 C14         3.5070   -0.2730    2.9690 cd        1 2YW      0.672700
     15 N15         4.6830   -0.4700    3.6780 nu        1 2YW     -0.794200
     16 C16         5.9580   -0.3400    3.0080 c3        1 2YW      0.191800
     17 C17         7.1360   -0.2970    3.9880 c3        1 2YW     -0.048100
     18 O18        -0.2230   -0.3850   -2.3860 o         1 2YW     -0.556500
     19 C19        10.8150    0.0940    1.8260 ca        1 2YW     -0.122600
     20 C20        12.0690    0.2690    1.0760 c         1 2YW      0.640700
     21 O21        12.8570   -0.8500    1.0260 os        1 2YW     -0.437900
     22 C22        14.0930   -0.7260    0.3190 c3        1 2YW      0.126700
     23 C23         9.9700    1.2020    1.9780 ca        1 2YW     -0.067500
     24 C24         8.7740    1.0690    2.6790 ca        1 2YW     -0.141500
     25 C25         8.4110   -0.1660    3.2310 ca        1 2YW     -0.070300
     26 C26         9.2610   -1.2670    3.0800 ca        1 2YW     -0.141500
     27 C27        10.4600   -1.1390    2.3810 ca        1 2YW     -0.067500
     28 O28        12.4690    1.2870    0.5040 o         1 2YW     -0.533000
     29 H1          1.9330   -0.5260   -0.9580 ha        1 2YW      0.178000
     30 H2         -0.5420    0.4150    3.3990 ha        1 2YW      0.181000
     31 H3         -4.3980    1.3560   -0.4940 hn        1 2YW      0.478133
     32 H4         -4.6500   -0.2910   -0.2790 hn        1 2YW      0.478133
     33 H5         -2.6320    0.0270   -2.0480 hn        1 2YW      0.347500
     34 H6          4.1530   -0.7090    0.9450 hn        1 2YW      0.324700
     35 H8          4.6490   -0.1900    4.6380 hn        1 2YW      0.458800
     36 H9          5.9890    0.5930    2.3720 h1        1 2YW      0.052200
     37 H10         6.0850   -1.2310    2.3270 h1        1 2YW      0.052200
     38 H11         7.0240    0.5760    4.6860 hc        1 2YW      0.068200
     39 H12         7.1490   -1.2310    4.6120 hc        1 2YW      0.068200
     40 H13        14.7250    0.0630    0.7920 h1        1 2YW      0.055700
     41 H14        14.5540   -1.7390    0.4210 h1        1 2YW      0.055700
     42 H15        13.8950   -0.4690   -0.7500 h1        1 2YW      0.055700
     43 H16        10.2640    2.1710    1.5420 ha        1 2YW      0.164500
     44 H17         8.1160    1.9420    2.8070 ha        1 2YW      0.139500
     45 H18         8.9880   -2.2390    3.5200 ha        1 2YW      0.139500
     46 H19        11.1330   -2.0050    2.2650 ha        1 2YW      0.164500
     47 H103       -4.4650    0.7110    1.0520 hn        1 2YW      0.478133
@<TRIPOS>BOND
     1    1    2 ar  
     2    1    6 ar  
     3    1    7 1   
     4    2    3 ar  
     5    2   29 1   
     6    3    4 ar  
     7    3   12 1   
     8    4    5 ar  
     9    4   13 1   
    10    5    6 ar  
    11    5   30 1   
    12    6    8 1   
    13    7   11 1   
    14    7   18 2   
    15    8    9 2   
    16    9   10 1   
    17    9   11 1   
    18   10   31 1   
    19   10   32 1   
    20   10   47 1   
    21   11   33 1   
    22   12   14 1   
    23   12   34 1   
    24   13   14 2   
    25   14   15 1   
    26   15   16 1   
    27   15   35 1   
    28   16   17 1   
    29   16   36 1   
    30   16   37 1   
    31   17   25 1   
    32   17   38 1   
    33   17   39 1   
    34   19   20 1   
    35   19   23 ar  
    36   19   27 ar  
    37   20   21 1   
    38   20   28 2   
    39   21   22 1   
    40   22   40 1   
    41   22   41 1   
    42   22   42 1   
    43   23   24 ar  
    44   23   43 1   
    45   24   25 ar  
    46   24   44 1   
    47   25   26 ar  
    48   26   27 ar  
    49   26   45 1   
    50   27   46 1   
@<TRIPOS>SUBSTRUCTURE
     1 2YW         1 TEMP              0 ****  ****    0 ROOT
