@<TRIPOS>MOLECULE
2YX
   42    45     1     0     0
SMALL
bcc


@<TRIPOS>ATOM
      1 O          -0.0510   -0.4090    0.0560 o         1 2YX     -0.555500
      2 C17         1.1670   -0.2230   -0.0260 c         1 2YX      0.730100
      3 N6          1.8690   -0.0480    1.2000 ns        1 2YX     -0.513400
      4 C           3.2520    0.1650    1.1490 cc        1 2YX      0.496800
      5 N           3.9660    0.3460    2.4580 nz        1 2YX     -0.798600
      6 C16         1.9680   -0.1640   -1.2590 ca        1 2YX     -0.170600
      7 C1          3.3800    0.0610   -1.1760 ca        1 2YX      0.120400
      8 N1          4.0050    0.2260    0.0690 nd        1 2YX     -0.536100
      9 C15         1.3210   -0.3320   -2.4830 ca        1 2YX     -0.044000
     10 C14         2.1030   -0.2750   -3.6330 ca        1 2YX     -0.070200
     11 C3          3.5460   -0.0470   -3.5720 ca        1 2YX      0.140400
     12 C2          4.1750    0.1220   -2.3350 ca        1 2YX     -0.040000
     13 N5          1.7820   -0.3810   -4.9870 na        1 2YX     -0.291300
     14 C4          3.0150   -0.2570   -5.7030 cc        1 2YX      0.671700
     15 N2          4.0860   -0.0300   -4.8600 nd        1 2YX     -0.615100
     16 N3          3.1050   -0.4280   -7.0770 nu        1 2YX     -0.794200
     17 C5          1.9330   -0.2450   -7.9030 c3        1 2YX      0.191800
     18 C6          2.2710   -0.1730   -9.3970 c3        1 2YX     -0.047100
     19 C7          1.0160   -0.0540  -10.1880 ca        1 2YX     -0.080300
     20 C13         0.5820    1.1950  -10.6440 ca        1 2YX     -0.128500
     21 C12        -0.5880    1.3050  -11.3920 ca        1 2YX     -0.087000
     22 C10        -1.3360    0.1570  -11.6910 ca        1 2YX     -0.002000
     23 C11        -2.5330    0.2650  -12.4500 cg        1 2YX      0.219800
     24 N4         -3.5130    0.3540  -13.0690 n1        1 2YX     -0.335800
     25 C9         -0.9010   -1.0980  -11.2410 ca        1 2YX     -0.087000
     26 C8          0.2690   -1.1990  -10.4940 ca        1 2YX     -0.128500
     27 H1          1.3580   -0.0830    2.0540 hn        1 2YX      0.347500
     28 H2          4.9710    0.4950    2.2840 hn        1 2YX      0.478133
     29 H3          3.5840    1.1640    2.9460 hn        1 2YX      0.478133
     30 H4          0.2320   -0.5020   -2.5170 ha        1 2YX      0.178000
     31 H5          5.2620    0.2950   -2.2830 ha        1 2YX      0.181000
     32 H6          0.9070   -0.6400   -5.3630 hn        1 2YX      0.324700
     33 H8          3.9830   -0.1650   -7.4780 hn        1 2YX      0.457800
     34 H9          1.2460   -1.1250   -7.7320 h1        1 2YX      0.052200
     35 H10         1.3760    0.6940   -7.6150 h1        1 2YX      0.052200
     36 H11         2.8290   -1.0960   -9.7100 hc        1 2YX      0.068200
     37 H12         2.9370    0.7090   -9.5970 hc        1 2YX      0.068200
     38 H13         1.1690    2.0980  -10.4180 ha        1 2YX      0.141000
     39 H14        -0.9230    2.2900  -11.7520 ha        1 2YX      0.154000
     40 H15        -1.4830   -2.0020  -11.4830 ha        1 2YX      0.154000
     41 H16         0.6130   -2.1860  -10.1490 ha        1 2YX      0.141000
     42 HN3         3.8440   -0.4940    3.0340 hn        1 2YX      0.478133
@<TRIPOS>BOND
     1    1    2 2   
     2    2    3 1   
     3    2    6 1   
     4    3    4 1   
     5    3   27 1   
     6    4    5 1   
     7    4    8 2   
     8    5   28 1   
     9    5   29 1   
    10    5   42 1   
    11    6    7 ar  
    12    6    9 ar  
    13    7    8 1   
    14    7   12 ar  
    15    9   10 ar  
    16    9   30 1   
    17   10   11 ar  
    18   10   13 1   
    19   11   12 ar  
    20   11   15 1   
    21   12   31 1   
    22   13   14 1   
    23   13   32 1   
    24   14   15 2   
    25   14   16 1   
    26   16   17 1   
    27   16   33 1   
    28   17   18 1   
    29   17   34 1   
    30   17   35 1   
    31   18   19 1   
    32   18   36 1   
    33   18   37 1   
    34   19   20 ar  
    35   19   26 ar  
    36   20   21 ar  
    37   20   38 1   
    38   21   22 ar  
    39   21   39 1   
    40   22   23 1   
    41   22   25 ar  
    42   23   24 3   
    43   25   26 ar  
    44   25   40 1   
    45   26   41 1   
@<TRIPOS>SUBSTRUCTURE
     1 2YX         1 TEMP              0 ****  ****    0 ROOT
