@<TRIPOS>MOLECULE
2YX
   42    45     1     0     0
SMALL
bcc


@<TRIPOS>ATOM
      1 O          -0.0250   -0.4990    0.0210 o         1 2YX     -0.555500
      2 C17         1.1800   -0.2420   -0.0640 c         1 2YX      0.730100
      3 N6          1.8760   -0.0360    1.1620 n         1 2YX     -0.513400
      4 C           3.2430    0.2570    1.1070 cc        1 2YX      0.496800
      5 N           3.9500    0.4680    2.4160 n4        1 2YX     -0.798600
      6 C16         1.9710   -0.1270   -1.2990 ca        1 2YX     -0.170600
      7 C1          3.3690    0.1800   -1.2180 ca        1 2YX      0.120400
      8 N1          3.9870    0.3700    0.0260 nd        1 2YX     -0.536100
      9 C15         1.3310   -0.3210   -2.5230 ca        1 2YX     -0.044000
     10 C14         2.1030   -0.2090   -3.6750 ca        1 2YX     -0.070200
     11 C3          3.5310    0.1020   -3.6160 ca        1 2YX      0.140400
     12 C2          4.1540    0.2960   -2.3800 ca        1 2YX     -0.040000
     13 N5          1.7840   -0.3220   -5.0280 na        1 2YX     -0.291300
     14 C4          3.0060   -0.1210   -5.7470 cc        1 2YX      0.671700
     15 N2          4.0640    0.1610   -4.9060 nd        1 2YX     -0.615100
     16 N3          3.1000   -0.2750   -7.1220 nh        1 2YX     -0.794200
     17 C5          1.9160   -0.1540   -7.9440 c3        1 2YX      0.191800
     18 C6          2.2440   -0.0490   -9.4380 c3        1 2YX     -0.047100
     19 C7          0.9810    0.0030  -10.2230 ca        1 2YX     -0.080300
     20 C13         0.4750    1.2280  -10.6710 ca        1 2YX     -0.128500
     21 C12        -0.7010    1.2770  -11.4140 ca        1 2YX     -0.087000
     22 C10        -1.3850    0.0910  -11.7170 ca        1 2YX     -0.002000
     23 C11        -2.5880    0.1360  -12.4720 cg        1 2YX      0.219800
     24 N4         -3.5750    0.1720  -13.0870 n1        1 2YX     -0.335800
     25 C9         -0.8780   -1.1410  -11.2770 ca        1 2YX     -0.087000
     26 C8          0.2980   -1.1800  -10.5340 ca        1 2YX     -0.128500
     27 H1          1.3710   -0.1080    2.0170 hn        1 2YX      0.347500
     28 H2          3.5230    1.2580    2.9120 hn        1 2YX      0.478133
     29 H3          3.8790   -0.3830    2.9840 hn        1 2YX      0.478133
     30 H4          0.2530   -0.5540   -2.5540 ha        1 2YX      0.178000
     31 H5          5.2290    0.5320   -2.3300 ha        1 2YX      0.181000
     32 H6          0.9250   -0.6290   -5.4040 hn        1 2YX      0.324700
     33 H8          3.9590    0.0420   -7.5240 hn        1 2YX      0.457800
     34 H9          1.2810   -1.0730   -7.7780 h1        1 2YX      0.052200
     35 H10         1.3060    0.7490   -7.6460 h1        1 2YX      0.052200
     36 H11         2.8570    0.8710   -9.6320 hc        1 2YX      0.068200
     37 H12         2.8530   -0.9370   -9.7600 hc        1 2YX      0.068200
     38 H13         1.0120    2.1620  -10.4420 ha        1 2YX      0.141000
     39 H14        -1.0930    2.2440  -11.7670 ha        1 2YX      0.154000
     40 H15        -1.4090   -2.0740  -11.5220 ha        1 2YX      0.154000
     41 H16         0.6990   -2.1480  -10.1970 ha        1 2YX      0.141000
     42 HN3         4.9450    0.6760    2.2400 hn        1 2YX      0.478133
@<TRIPOS>BOND
     1    1    2 2   
     2    2    3 1   
     3    2    6 1   
     4    3    4 1   
     5    3   27 1   
     6    4    5 1   
     7    4    8 2   
     8    5   28 1   
     9    5   29 1   
    10    5   42 1   
    11    6    7 ar  
    12    6    9 ar  
    13    7    8 1   
    14    7   12 ar  
    15    9   10 ar  
    16    9   30 1   
    17   10   11 ar  
    18   10   13 1   
    19   11   12 ar  
    20   11   15 1   
    21   12   31 1   
    22   13   14 1   
    23   13   32 1   
    24   14   15 2   
    25   14   16 1   
    26   16   17 1   
    27   16   33 1   
    28   17   18 1   
    29   17   34 1   
    30   17   35 1   
    31   18   19 1   
    32   18   36 1   
    33   18   37 1   
    34   19   20 ar  
    35   19   26 ar  
    36   20   21 ar  
    37   20   38 1   
    38   21   22 ar  
    39   21   39 1   
    40   22   23 1   
    41   22   25 ar  
    42   23   24 3   
    43   25   26 ar  
    44   25   40 1   
    45   26   41 1   
@<TRIPOS>SUBSTRUCTURE
     1 2YX         1 TEMP              0 ****  ****    0 ROOT
