@<TRIPOS>MOLECULE
2YY
   43    46     1     0     0
SMALL
bcc


@<TRIPOS>ATOM
      1 C1          0.1700   -0.1000    0.0140 ca        1 2YY     -0.182600
      2 C2          1.5590   -0.2350    0.0610 ca        1 2YY     -0.043000
      3 C3          2.1670   -0.1830    1.3090 ca        1 2YY     -0.069200
      4 C4          1.3930    0.0040    2.5410 ca        1 2YY      0.153400
      5 C5          0.0030    0.1370    2.4710 ca        1 2YY     -0.058000
      6 C6         -0.6070    0.0870    1.2040 ca        1 2YY      0.119400
      7 C7         -0.4980   -0.1500   -1.2920 c         1 2YY      0.732100
      8 N8         -2.0000    0.2260    1.1310 nc        1 2YY     -0.534100
      9 C9         -2.5590    0.1790   -0.0610 cd        1 2YY      0.481800
     10 N10        -4.0540    0.3380   -0.0880 n4        1 2YY     -0.797600
     11 N11        -1.9160   -0.0000   -1.2900 n         1 2YY     -0.516400
     12 N12         3.5010   -0.2720    1.7000 na        1 2YY     -0.294300
     13 N13         2.2370    0.0240    3.6460 nc        1 2YY     -0.641100
     14 C14         3.5160   -0.1520    3.1270 cd        1 2YY      0.697700
     15 N15         4.6680   -0.2610    3.8620 nh        1 2YY     -0.800200
     16 C16         5.9630   -0.2170    3.2190 c3        1 2YY      0.186800
     17 C17         7.1390   -0.1270    4.1990 c3        1 2YY     -0.022100
     18 O18         0.0320   -0.3090   -2.3970 o         1 2YY     -0.562500
     19 C19        10.6210    0.1490    1.7110 ca        1 2YY     -0.108600
     20 C20        11.7990    0.2400    0.7460 c         1 2YY      0.906200
     21 O21        12.3760   -0.8350    0.4270 o         1 2YY     -0.818300
     22 C22         9.9340    1.3050    2.0970 ca        1 2YY     -0.108000
     23 C23         8.8210    1.2190    2.9290 ca        1 2YY     -0.150500
     24 C24         8.3820   -0.0290    3.3890 ca        1 2YY     -0.153300
     25 C25         9.0890   -1.1830    3.0340 ca        1 2YY     -0.150500
     26 C26        10.2020   -1.0920    2.2010 ca        1 2YY     -0.108000
     27 O27        12.1110    1.3850    0.3160 o         1 2YY     -0.818300
     28 H1          2.1340   -0.3760   -0.8700 ha        1 2YY      0.179000
     29 H2         -0.5870    0.2790    3.3900 ha        1 2YY      0.175000
     30 H4         -4.4790   -0.5000   -0.4980 hn        1 2YY      0.473467
     31 H5         -4.4030    0.4610    0.8740 hn        1 2YY      0.473467
     32 H6          4.2820   -0.4210    1.1120 hn        1 2YY      0.334700
     33 H8          4.6110   -0.0470    4.8350 hn        1 2YY      0.466800
     34 H9          6.0200    0.6720    2.5240 h1        1 2YY      0.058200
     35 H10         6.0830   -1.1560    2.6030 h1        1 2YY      0.058200
     36 H11         7.0270    0.7730    4.8580 hc        1 2YY      0.049200
     37 H12         7.1630   -1.0350    4.8560 hc        1 2YY      0.049200
     38 H13        10.2940    2.2750    1.7180 ha        1 2YY      0.160000
     39 H14         8.2820    2.1300    3.2260 ha        1 2YY      0.105000
     40 H15         8.7610   -2.1620    3.4120 ha        1 2YY      0.105000
     41 H16        10.7710   -1.9880    1.9040 ha        1 2YY      0.160000
     42 H3         -2.4020   -0.0250   -2.1570 hn        1 2YY      0.341500
     43 H103       -4.2990    1.1640   -0.6440 hn        1 2YY      0.473467
@<TRIPOS>BOND
     1    1    2 ar  
     2    1    6 ar  
     3    1    7 1   
     4    2    3 ar  
     5    2   28 1   
     6    3    4 ar  
     7    3   12 1   
     8    4    5 ar  
     9    4   13 1   
    10    5    6 ar  
    11    5   29 1   
    12    6    8 1   
    13    7   11 1   
    14    7   18 2   
    15    8    9 2   
    16    9   10 1   
    17    9   11 1   
    18   10   30 1   
    19   10   31 1   
    20   10   43 1   
    21   11   42 1   
    22   12   14 1   
    23   12   32 1   
    24   13   14 2   
    25   14   15 1   
    26   15   16 1   
    27   15   33 1   
    28   16   17 1   
    29   16   34 1   
    30   16   35 1   
    31   17   24 1   
    32   17   36 1   
    33   17   37 1   
    34   19   20 1   
    35   19   22 ar  
    36   19   26 ar  
    37   20   21 1   
    38   20   27 1   
    39   22   23 ar  
    40   22   38 1   
    41   23   24 ar  
    42   23   39 1   
    43   24   25 ar  
    44   25   26 ar  
    45   25   40 1   
    46   26   41 1   
@<TRIPOS>SUBSTRUCTURE
     1 2YY         1 TEMP              0 ****  ****    0 ROOT
