@<TRIPOS>MOLECULE
2YY
   43    46     1     0     0
SMALL
bcc


@<TRIPOS>ATOM
      1 C1          0.1660   -0.1070    0.0250 ca        1 2YY     -0.182600
      2 C2          1.5550   -0.2410    0.0670 ca        1 2YY     -0.043000
      3 C3          2.1660   -0.1900    1.3140 ca        1 2YY     -0.069200
      4 C4          1.3950   -0.0040    2.5480 ca        1 2YY      0.153400
      5 C5          0.0050    0.1290    2.4820 ca        1 2YY     -0.058000
      6 C6         -0.6080    0.0790    1.2170 ca        1 2YY      0.119400
      7 C7         -0.5060   -0.1570   -1.2800 c         1 2YY      0.732100
      8 N8         -2.0010    0.2180    1.1480 nc        1 2YY     -0.534100
      9 C9         -2.5640    0.1710   -0.0430 cd        1 2YY      0.481800
     10 N10        -4.0590    0.3290   -0.0660 nz        1 2YY     -0.797600
     11 N11        -1.9240   -0.0080   -1.2740 ns        1 2YY     -0.516400
     12 N12         3.5010   -0.2780    1.7010 na        1 2YY     -0.294300
     13 N13         2.2430    0.0170    3.6510 nc        1 2YY     -0.641100
     14 C14         3.5200   -0.1580    3.1280 cd        1 2YY      0.697700
     15 N15         4.6750   -0.2670    3.8610 nu        1 2YY     -0.800200
     16 C16         5.9670   -0.2220    3.2140 c3        1 2YY      0.186800
     17 C17         7.1460   -0.1330    4.1900 c3        1 2YY     -0.022100
     18 O18         0.0210   -0.3150   -2.3860 o         1 2YY     -0.562500
     19 C19        10.6210    0.1460    1.6930 ca        1 2YY     -0.108600
     20 C20        11.7970    0.2380    0.7250 c         1 2YY      0.906200
     21 O21        12.3720   -0.8380    0.4030 o         1 2YY     -0.818300
     22 C22         9.9350    1.3010    2.0820 ca        1 2YY     -0.108000
     23 C23         8.8250    1.2150    2.9170 ca        1 2YY     -0.150500
     24 C24         8.3870   -0.0330    3.3770 ca        1 2YY     -0.153300
     25 C25         9.0930   -1.1880    3.0190 ca        1 2YY     -0.150500
     26 C26        10.2030   -1.0950    2.1840 ca        1 2YY     -0.108000
     27 O27        12.1080    1.3830    0.2950 o         1 2YY     -0.818300
     28 H1          2.1270   -0.3810   -0.8650 ha        1 2YY      0.179000
     29 H2         -0.5830    0.2710    3.4030 ha        1 2YY      0.175000
     30 H4         -4.4050    0.4510    0.8970 hn        1 2YY      0.473467
     31 H5         -4.3060    1.1550   -0.6210 hn        1 2YY      0.473467
     32 H6          4.2810   -0.4260    1.1110 hn        1 2YY      0.334700
     33 H8          4.6200   -0.0540    4.8330 hn        1 2YY      0.466800
     34 H9          6.0220    0.6670    2.5180 h1        1 2YY      0.058200
     35 H10         6.0860   -1.1610    2.5970 h1        1 2YY      0.058200
     36 H11         7.0350    0.7670    4.8500 hc        1 2YY      0.049200
     37 H12         7.1720   -1.0410    4.8470 hc        1 2YY      0.049200
     38 H13        10.2940    2.2720    1.7020 ha        1 2YY      0.160000
     39 H14         8.2870    2.1250    3.2170 ha        1 2YY      0.105000
     40 H15         8.7660   -2.1670    3.3970 ha        1 2YY      0.105000
     41 H16        10.7710   -1.9920    1.8830 ha        1 2YY      0.160000
     42 H3         -2.4130   -0.0320   -2.1400 hn        1 2YY      0.341500
     43 H103       -4.4840   -0.5090   -0.4740 hn        1 2YY      0.473467
@<TRIPOS>BOND
     1    1    2 ar  
     2    1    6 ar  
     3    1    7 1   
     4    2    3 ar  
     5    2   28 1   
     6    3    4 ar  
     7    3   12 1   
     8    4    5 ar  
     9    4   13 1   
    10    5    6 ar  
    11    5   29 1   
    12    6    8 1   
    13    7   11 1   
    14    7   18 2   
    15    8    9 2   
    16    9   10 1   
    17    9   11 1   
    18   10   30 1   
    19   10   31 1   
    20   10   43 1   
    21   11   42 1   
    22   12   14 1   
    23   12   32 1   
    24   13   14 2   
    25   14   15 1   
    26   15   16 1   
    27   15   33 1   
    28   16   17 1   
    29   16   34 1   
    30   16   35 1   
    31   17   24 1   
    32   17   36 1   
    33   17   37 1   
    34   19   20 1   
    35   19   22 ar  
    36   19   26 ar  
    37   20   21 1   
    38   20   27 1   
    39   22   23 ar  
    40   22   38 1   
    41   23   24 ar  
    42   23   39 1   
    43   24   25 ar  
    44   25   26 ar  
    45   25   40 1   
    46   26   41 1   
@<TRIPOS>SUBSTRUCTURE
     1 2YY         1 TEMP              0 ****  ****    0 ROOT
