@<TRIPOS>MOLECULE
2YZ
   36    37     1     0     0
SMALL
bcc


@<TRIPOS>ATOM
      1 O1         -1.1630    0.7010   -0.3460 os        1 2YZ     -0.355900
      2 C2          0.0980    1.2720    0.0170 c3        1 2YZ      0.031400
      3 C3          0.1440    1.3250    1.5250 c         1 2YZ      0.629100
      4 O4          0.9690    1.9710    2.1690 o         1 2YZ     -0.484000
      5 O6         -0.7490    0.6300    2.2760 oh        1 2YZ     -0.567100
      6 C9         -1.2210    0.1130   -1.5990 ca        1 2YZ      0.171100
      7 C10        -2.1710   -0.9070   -1.7900 ca        1 2YZ     -0.176600
      8 C11        -3.0740   -1.4490   -0.7310 c         1 2YZ      0.674700
      9 N12        -3.5800   -0.5740    0.2120 ns        1 2YZ     -0.552900
     10 C14        -4.6270   -0.9590    1.1240 c3        1 2YZ      0.126300
     11 C15        -5.9500   -0.3020    0.8470 ca        1 2YZ     -0.122300
     12 C16        -6.1250    1.0590    1.1200 ca        1 2YZ     -0.116000
     13 C17        -7.3570    1.6670    0.8840 ca        1 2YZ     -0.130500
     14 C19        -8.4190    0.9190    0.3750 ca        1 2YZ     -0.122000
     15 C20        -8.2470   -0.4370    0.1010 ca        1 2YZ     -0.130500
     16 C21        -7.0150   -1.0480    0.3340 ca        1 2YZ     -0.116000
     17 O28        -3.3460   -2.6670   -0.7010 o         1 2YZ     -0.602100
     18 C29        -2.2750   -1.4930   -3.0600 ca        1 2YZ     -0.030000
     19 C31        -1.4770   -1.0790   -4.1180 ca        1 2YZ     -0.194000
     20 C33        -0.5360   -0.0520   -3.9110 ca        1 2YZ      0.181900
     21 F34         0.2460    0.3640   -4.9320 f         1 2YZ     -0.127900
     22 C35        -0.4020    0.5480   -2.6470 ca        1 2YZ     -0.243000
     23 H1          0.1610    2.3130   -0.3990 h1        1 2YZ      0.089700
     24 H2          0.9530    0.6500   -0.3590 h1        1 2YZ      0.089700
     25 H4         -1.3600    0.1300    1.7110 ho        1 2YZ      0.451000
     26 H5         -4.2940   -0.6670    2.1630 h1        1 2YZ      0.073200
     27 H6         -4.7420   -2.0820    1.0950 h1        1 2YZ      0.073200
     28 H7         -5.2900    1.6470    1.5290 ha        1 2YZ      0.135500
     29 H8         -7.4910    2.7370    1.1020 ha        1 2YZ      0.134500
     30 H9         -9.3910    1.3990    0.1910 ha        1 2YZ      0.134000
     31 H10        -9.0840   -1.0280   -0.2990 ha        1 2YZ      0.134500
     32 H11        -6.8800   -2.1180    0.1140 ha        1 2YZ      0.135500
     33 H12        -3.0020   -2.3120   -3.2040 ha        1 2YZ      0.170000
     34 H13        -1.5670   -1.5460   -5.1090 ha        1 2YZ      0.162000
     35 H14         0.3340    1.3520   -2.5050 ha        1 2YZ      0.161000
     36 H122       -3.4560    0.4010    0.0610 hn        1 2YZ      0.314500
@<TRIPOS>BOND
     1    1    2 1   
     2    1    6 1   
     3    2    3 1   
     4    2   23 1   
     5    2   24 1   
     6    3    4 2   
     7    3    5 1   
     8    5   25 1   
     9    6    7 ar  
    10    6   22 ar  
    11    7    8 1   
    12    7   18 ar  
    13    8    9 1   
    14    8   17 2   
    15    9   10 1   
    16    9   36 1   
    17   10   11 1   
    18   10   26 1   
    19   10   27 1   
    20   11   12 ar  
    21   11   16 ar  
    22   12   13 ar  
    23   12   28 1   
    24   13   14 ar  
    25   13   29 1   
    26   14   15 ar  
    27   14   30 1   
    28   15   16 ar  
    29   15   31 1   
    30   16   32 1   
    31   18   19 ar  
    32   18   33 1   
    33   19   20 ar  
    34   19   34 1   
    35   20   21 1   
    36   20   22 ar  
    37   22   35 1   
@<TRIPOS>SUBSTRUCTURE
     1 2YZ         1 TEMP              0 ****  ****    0 ROOT
