@<TRIPOS>MOLECULE
2YZ
   36    37     1     0     0
SMALL
bcc


@<TRIPOS>ATOM
      1 O1         -1.1690    0.7280   -0.3970 os        1 2YZ     -0.355900
      2 C2          0.0920    1.3170   -0.0650 c3        1 2YZ      0.031400
      3 C3          0.1670    1.3870    1.4420 c         1 2YZ      0.629100
      4 O4          0.9970    2.0490    2.0620 o         1 2YZ     -0.484000
      5 O6         -0.7030    0.6910    2.2170 oh        1 2YZ     -0.567100
      6 C9         -1.2440    0.1250   -1.6410 ca        1 2YZ      0.171100
      7 C10        -2.1870   -0.9080   -1.8020 ca        1 2YZ     -0.176600
      8 C11        -3.0620   -1.4480   -0.7190 c         1 2YZ      0.674700
      9 N12        -3.5600   -0.5680    0.2230 n         1 2YZ     -0.552900
     10 C14        -4.5850   -0.9540    1.1590 c3        1 2YZ      0.126300
     11 C15        -5.9210   -0.3160    0.9000 ca        1 2YZ     -0.122300
     12 C16        -6.1060    1.0470    1.1590 ca        1 2YZ     -0.116000
     13 C17        -7.3490    1.6380    0.9400 ca        1 2YZ     -0.130500
     14 C19        -8.4120    0.8710    0.4620 ca        1 2YZ     -0.122000
     15 C20        -8.2300   -0.4870    0.2020 ca        1 2YZ     -0.130500
     16 C21        -6.9860   -1.0810    0.4180 ca        1 2YZ     -0.116000
     17 O28        -3.3190   -2.6690   -0.6700 o         1 2YZ     -0.602100
     18 C29        -2.3080   -1.5100   -3.0630 ca        1 2YZ     -0.030000
     19 C31        -1.5350   -1.1000   -4.1410 ca        1 2YZ     -0.194000
     20 C33        -0.6030   -0.0600   -3.9650 ca        1 2YZ      0.181900
     21 F34         0.1550    0.3530   -5.0050 f         1 2YZ     -0.127900
     22 C35        -0.4510    0.5570   -2.7110 ca        1 2YZ     -0.243000
     23 H1          0.1350    2.3530   -0.4940 h1        1 2YZ      0.089700
     24 H2          0.9460    0.7000   -0.4510 h1        1 2YZ      0.089700
     25 H4         -1.3200    0.1780    1.6700 ho        1 2YZ      0.451000
     26 H5         -4.6880   -2.0780    1.1460 h1        1 2YZ      0.073200
     27 H6         -4.2350   -0.6460    2.1890 h1        1 2YZ      0.073200
     28 H7         -5.2700    1.6500    1.5430 ha        1 2YZ      0.135500
     29 H8         -7.4920    2.7080    1.1460 ha        1 2YZ      0.134500
     30 H9         -9.3940    1.3370    0.2910 ha        1 2YZ      0.134000
     31 H10        -9.0680   -1.0930   -0.1740 ha        1 2YZ      0.134500
     32 H11        -6.8440   -2.1520    0.2090 ha        1 2YZ      0.135500
     33 H12        -3.0280   -2.3390   -3.1830 ha        1 2YZ      0.170000
     34 H13        -1.6390   -1.5790   -5.1250 ha        1 2YZ      0.162000
     35 H14         0.2780    1.3700   -2.5910 ha        1 2YZ      0.161000
     36 H122       -3.4500    0.4070    0.0580 hn        1 2YZ      0.314500
@<TRIPOS>BOND
     1    1    2 1   
     2    1    6 1   
     3    2    3 1   
     4    2   23 1   
     5    2   24 1   
     6    3    4 2   
     7    3    5 1   
     8    5   25 1   
     9    6    7 ar  
    10    6   22 ar  
    11    7    8 1   
    12    7   18 ar  
    13    8    9 1   
    14    8   17 2   
    15    9   10 1   
    16    9   36 1   
    17   10   11 1   
    18   10   26 1   
    19   10   27 1   
    20   11   12 ar  
    21   11   16 ar  
    22   12   13 ar  
    23   12   28 1   
    24   13   14 ar  
    25   13   29 1   
    26   14   15 ar  
    27   14   30 1   
    28   15   16 ar  
    29   15   31 1   
    30   16   32 1   
    31   18   19 ar  
    32   18   33 1   
    33   19   20 ar  
    34   19   34 1   
    35   20   21 1   
    36   20   22 ar  
    37   22   35 1   
@<TRIPOS>SUBSTRUCTURE
     1 2YZ         1 TEMP              0 ****  ****    0 ROOT
