@<TRIPOS>MOLECULE
2Z0
   78    79     1     0     0
SMALL
bcc


@<TRIPOS>ATOM
      1 C1          3.4080    1.1950    2.7160 ca        1 2Z0      0.023000
      2 C2          3.2870    0.2330    1.7370 ca        1 2Z0     -0.381500
      3 C3          3.7460    0.5380    0.4290 ca        1 2Z0     -0.059000
      4 C4          4.3020    1.7570    0.1360 ca        1 2Z0     -0.121000
      5 C4A         4.4400    2.7590    1.1370 ca        1 2Z0      0.016000
      6 C5          5.0230    4.0540    0.8760 ca        1 2Z0      0.113600
      7 C6          5.0740    4.9860    1.9070 ca        1 2Z0     -0.154000
      8 C7          4.5830    4.6850    3.1950 ca        1 2Z0     -0.117000
      9 C8          4.0520    3.4510    3.4690 ca        1 2Z0     -0.117000
     10 C8A         3.9710    2.4700    2.4440 ca        1 2Z0     -0.062000
     11 N           5.4770    4.3490   -0.4450 nh        1 2Z0     -0.639000
     12 CM1         5.4110    5.7410   -0.8250 c3        1 2Z0      0.164600
     13 CM2         6.7340    3.7210   -0.7970 c3        1 2Z0      0.164600
     14 S           2.6420   -1.2910    2.0640 sy        1 2Z0      1.518200
     15 O1S         3.0600   -2.1920    1.0600 o         1 2Z0     -0.653300
     16 O2S         2.9520   -1.6200    3.4000 o         1 2Z0     -0.653300
     17 N1          1.0440   -1.0480    1.9500 n3        1 2Z0     -0.907100
     18 CA          0.2240   -1.4100    0.8290 c3        1 2Z0      0.188500
     19 C          -0.4430   -0.1410    0.2320 c         1 2Z0      0.640100
     20 O          -1.0140    0.6930    0.9640 o         1 2Z0     -0.622100
     21 CB         -0.9100   -2.3920    1.1820 c3        1 2Z0     -0.083400
     22 CG         -1.3140   -3.2090   -0.0220 c3        1 2Z0     -0.167400
     23 CD         -2.6600   -3.8740    0.1640 c         1 2Z0      0.914600
     24 OE1        -3.2300   -3.8960    1.3100 o         1 2Z0     -0.873300
     25 OE2        -3.2440   -4.4000   -0.8340 o         1 2Z0     -0.873300
     26 N2         -0.3650    0.0490   -1.1330 n         1 2Z0     -0.562900
     27 CA1        -0.8620    1.2280   -1.7690 c3        1 2Z0      0.026000
     28 C9         -2.3700    1.2460   -2.0780 c         1 2Z0      0.631100
     29 O1         -2.7680    1.4880   -3.2350 o         1 2Z0     -0.619100
     30 O2         -5.3370    3.0450    0.0330 o         1 2Z0     -0.499100
     31 N3         -3.2410    1.0180   -1.0370 n         1 2Z0     -0.557900
     32 CA2        -4.6710    1.0720   -1.2190 c3        1 2Z0      0.013700
     33 CC         -5.1970    2.5080   -1.0660 c         1 2Z0      0.541100
     34 CB1        -5.4360    0.1700   -0.2380 c3        1 2Z0     -0.081400
     35 CG1        -5.3620   -1.2810   -0.6600 c3        1 2Z0     -0.098400
     36 CD1        -5.7550   -2.1820    0.5120 c3        1 2Z0      0.004300
     37 NE         -5.7570   -3.5890    0.1540 nh        1 2Z0     -0.355100
     38 CZ         -5.4040   -4.5470    1.1140 cz        1 2Z0      0.540300
     39 NH2        -5.1140   -5.8430    0.6820 nh        1 2Z0     -0.457700
     40 NH1        -5.7080   -4.3370    2.4640 nh        1 2Z0     -0.457700
     41 CE         -5.4920    3.2210   -2.3560 c3        1 2Z0     -0.081000
     42 CL1        -7.0050    2.6590   -3.0340 cl        1 2Z0     -0.159400
     43 H1          3.0750    0.9790    3.7480 ha        1 2Z0      0.149000
     44 H3          3.6600   -0.2380   -0.3510 ha        1 2Z0      0.152000
     45 H4          4.6360    1.9670   -0.8930 ha        1 2Z0      0.153000
     46 H6          5.5020    5.9870    1.7390 ha        1 2Z0      0.137000
     47 H7          4.6440    5.4570    3.9770 ha        1 2Z0      0.137000
     48 H8          3.6800    3.2020    4.4740 ha        1 2Z0      0.139000
     49 HM11        6.2280    6.3670   -0.3710 h1        1 2Z0      0.038867
     50 HM12        5.5040    5.7960   -1.9420 h1        1 2Z0      0.038867
     51 HM13        4.4190    6.1660   -0.5210 h1        1 2Z0      0.038867
     52 HM21        6.7410    2.6590   -0.4390 h1        1 2Z0      0.038867
     53 HM22        6.8250    3.7320   -1.9150 h1        1 2Z0      0.038867
     54 HM23        7.6230    4.2530   -0.3590 h1        1 2Z0      0.038867
     55 H           0.5260   -0.6100    2.6780 hn        1 2Z0      0.460800
     56 HA          0.8950   -1.9020    0.0580 h1        1 2Z0      0.088700
     57 HB2        -0.5830   -3.0880    1.9980 hc        1 2Z0      0.070700
     58 HB3        -1.7930   -1.8240    1.5790 hc        1 2Z0      0.070700
     59 HG2        -1.3770   -2.5690   -0.9410 hc        1 2Z0      0.054200
     60 HG3        -0.5550   -4.0090   -0.2240 hc        1 2Z0      0.054200
     61 H2         -0.0910   -0.7080   -1.7140 hn        1 2Z0      0.326500
     62 HA2        -0.6460    2.1220   -1.1140 h1        1 2Z0      0.090200
     63 HA3        -0.3320    1.3570   -2.7560 h1        1 2Z0      0.090200
     64 H5         -2.8950    0.9750   -0.1020 hn        1 2Z0      0.346500
     65 HA1        -4.8980    0.7330   -2.2780 h1        1 2Z0      0.099700
     66 HB21       -5.0340    0.3060    0.8010 hc        1 2Z0      0.062700
     67 HB31       -6.5070    0.5050   -0.2220 hc        1 2Z0      0.062700
     68 HG21       -6.0430   -1.4530   -1.5340 hc        1 2Z0      0.068200
     69 HG31       -4.3190   -1.5410   -0.9900 hc        1 2Z0      0.068200
     70 HD2        -5.0220   -1.9800    1.3500 h1        1 2Z0      0.059700
     71 HD3        -6.7930   -1.9190    0.8640 h1        1 2Z0      0.059700
     72 HE         -5.3530   -3.7730   -0.7550 hn        1 2Z0      0.316700
     73 HH21       -4.7510   -6.4630    1.3740 hn        1 2Z0      0.289200
     74 HH11       -5.7900   -3.3860    2.7540 hn        1 2Z0      0.289200
     75 HH12       -5.2120   -4.9130    3.1100 hn        1 2Z0      0.289200
     76 HH22       -4.6250   -5.8880   -0.2010 hn        1 2Z0      0.289200
     77 H11        -5.5930    4.3220   -2.1910 h1        1 2Z0      0.103200
     78 H21        -4.6860    3.0070   -3.1040 h1        1 2Z0      0.103200
@<TRIPOS>BOND
     1    1    2 ar  
     2    1   10 ar  
     3    1   43 1   
     4    2    3 ar  
     5    2   14 1   
     6    3    4 ar  
     7    3   44 1   
     8    4    5 ar  
     9    4   45 1   
    10    5    6 ar  
    11    5   10 ar  
    12    6    7 ar  
    13    6   11 1   
    14    7    8 ar  
    15    7   46 1   
    16    8    9 ar  
    17    8   47 1   
    18    9   10 ar  
    19    9   48 1   
    20   11   12 1   
    21   11   13 1   
    22   12   49 1   
    23   12   50 1   
    24   12   51 1   
    25   13   52 1   
    26   13   53 1   
    27   13   54 1   
    28   14   15 2   
    29   14   16 2   
    30   14   17 1   
    31   17   18 1   
    32   17   55 1   
    33   18   19 1   
    34   18   21 1   
    35   18   56 1   
    36   19   20 2   
    37   19   26 1   
    38   21   22 1   
    39   21   57 1   
    40   21   58 1   
    41   22   23 1   
    42   22   59 1   
    43   22   60 1   
    44   23   24 1   
    45   23   25 1   
    46   26   27 1   
    47   26   61 1   
    48   27   28 1   
    49   27   62 1   
    50   27   63 1   
    51   28   29 2   
    52   28   31 1   
    53   30   33 2   
    54   31   32 1   
    55   31   64 1   
    56   32   33 1   
    57   32   34 1   
    58   32   65 1   
    59   33   41 1   
    60   34   35 1   
    61   34   66 1   
    62   34   67 1   
    63   35   36 1   
    64   35   68 1   
    65   35   69 1   
    66   36   37 1   
    67   36   70 1   
    68   36   71 1   
    69   37   38 2   
    70   37   72 1   
    71   38   39 1   
    72   38   40 1   
    73   39   73 1   
    74   39   76 1   
    75   40   74 1   
    76   40   75 1   
    77   41   42 1   
    78   41   77 1   
    79   41   78 1   
@<TRIPOS>SUBSTRUCTURE
     1 2Z0         1 TEMP              0 ****  ****    0 ROOT
