@<TRIPOS>MOLECULE
2Z0
   78    72     1     0     0
SMALL
bcc


@<TRIPOS>ATOM
      1 C1         -3.2460   -2.6030    2.0650 c1        1 2Z0      0.027000
      2 C2         -3.1670   -1.4700    1.2730 c1        1 2Z0     -0.832000
      3 C3         -3.9270   -1.3790    0.1030 c1        1 2Z0     -0.114500
      4 C4         -4.7680   -2.4330   -0.2680 c1        1 2Z0     -0.114500
      5 C4A        -4.8510   -3.5800    0.5330 c1        1 2Z0      0.015000
      6 C5         -5.6730   -4.6640    0.1350 c1        1 2Z0      0.028000
      7 C6         -5.7230   -5.8170    0.9070 c1        1 2Z0     -0.114500
      8 C7         -4.9610   -5.9110    2.0810 c1        1 2Z0     -0.114500
      9 C8         -4.1500   -4.8430    2.4740 c1        1 2Z0     -0.111000
     10 C8A        -4.0980   -3.6710    1.6900 c1        1 2Z0     -0.065000
     11 N          -6.5360   -4.9490   -1.0450 n3        1 2Z0     -0.241000
     12 CM1        -6.2310   -6.0630   -1.9120 c3        1 2Z0     -0.111500
     13 CM2        -7.6490   -4.1180   -1.3250 c3        1 2Z0     -0.111500
     14 S          -2.2260    0.0040    1.6640 s4        1 2Z0      2.077800
     15 O1S        -1.7430    0.6450    0.4750 o         1 2Z0     -0.536900
     16 O2S        -3.0710    1.0310    2.2120 o         1 2Z0     -0.536900
     17 N1         -0.9940   -0.3630    2.6860 n2        1 2Z0     -0.878000
     18 CA         -0.0260    0.6470    3.0410 c3        1 2Z0      0.032000
     19 C          -0.7060    1.9900    3.1280 c2        1 2Z0      0.288000
     20 O          -1.7410    2.1050    3.7590 o         1 2Z0     -0.349000
     21 CB          1.0490    0.6990    1.9960 c3        1 2Z0     -0.173000
     22 CG          1.7280   -0.6700    1.8910 c3        1 2Z0     -0.197000
     23 CD          2.4070   -0.7950    0.5350 c2        1 2Z0      0.328000
     24 OE1         3.6400   -1.0010    0.4710 o         1 2Z0     -0.620500
     25 OE2         1.7420   -0.6010   -0.5230 o         1 2Z0     -0.620500
     26 N2         -0.0390    3.1730    2.6100 n         1 2Z0     -0.383000
     27 CA1        -0.3840    3.6790    1.3210 c3        1 2Z0     -0.022000
     28 C9          0.8570    4.3050    0.6670 c2        1 2Z0      0.274000
     29 O1          0.7970    5.4220    0.2030 o         1 2Z0     -0.390000
     30 O2          2.8730    2.5250   -2.1220 o         1 2Z0     -0.321000
     31 N3          2.0490    3.5090    0.4770 n         1 2Z0     -0.371000
     32 CA2         3.1370    4.0190   -0.3200 c3        1 2Z0     -0.001000
     33 CC          2.8980    3.6840   -1.7650 c2        1 2Z0      0.232000
     34 CB1         4.4430    3.3890    0.1390 c3        1 2Z0     -0.192000
     35 CG1         5.5520    3.7170   -0.8650 c3        1 2Z0     -0.188000
     36 CD1         6.2540    2.4060   -1.3070 c3        1 2Z0     -0.046000
     37 NE          6.0270    2.1890   -2.7140 n3        1 2Z0     -0.304000
     38 CZ          5.7350    0.8460   -3.1970 c2        1 2Z0      0.374000
     39 NH2         4.7510    0.6540   -4.0520 n2        1 2Z0     -0.307000
     40 NH1         6.5260   -0.2790   -2.7380 n3        1 2Z0     -0.321000
     41 CE          2.7710    4.7940   -2.7860 c3        1 2Z0     -0.194000
     42 CL1         2.8580    4.1190   -4.3890 cl        1 2Z0     -0.076000
     43 H1         -2.7150   -2.6660    2.8810 ha        1 2Z0      0.154000
     44 H3         -3.8710   -0.5790   -0.4560 ha        1 2Z0      0.145500
     45 H4         -5.2750   -2.3820   -1.1010 ha        1 2Z0      0.145500
     46 H6         -6.2880   -6.5620    0.6330 ha        1 2Z0      0.145500
     47 H7         -5.0410   -6.6980    2.6520 ha        1 2Z0      0.145500
     48 H8         -3.6170   -4.9090    3.2970 ha        1 2Z0      0.147000
     49 HM11       -5.3070   -6.3370   -1.7750 h1        1 2Z0      0.077833
     50 HM12       -6.3570   -5.7950   -2.8480 h1        1 2Z0      0.077833
     51 HM13       -6.8340   -6.8210   -1.7020 h1        1 2Z0      0.077833
     52 HM21       -7.8410   -3.5720   -0.5570 h1        1 2Z0      0.077833
     53 HM22       -8.4380   -4.6820   -1.5360 h1        1 2Z0      0.077833
     54 HM23       -7.4440   -3.5450   -2.0900 h1        1 2Z0      0.077833
     55 H          -0.9490   -1.1930    3.0660 hn        1 2Z0      0.233000
     56 HA          0.3710    0.4270    3.9040 h1        1 2Z0      0.161000
     57 HB2         1.7120    1.3730    2.2440 hc        1 2Z0      0.095000
     58 HB3         0.6540    0.9330    1.1350 hc        1 2Z0      0.095000
     59 HG2         2.3960   -0.7580    2.6010 hc        1 2Z0      0.098000
     60 HG3         1.0540   -1.3780    1.9860 hc        1 2Z0      0.098000
     61 H2          0.5510    3.6280    3.1330 hn        1 2Z0      0.239000
     62 HA2        -0.7140    2.9460    0.7600 h1        1 2Z0      0.114000
     63 HA3        -1.0840    4.3620    1.4140 h1        1 2Z0      0.114000
     64 H5          2.0880    2.6510    0.8140 hn        1 2Z0      0.284000
     65 HA1         3.1900    4.9880   -0.2160 h1        1 2Z0      0.127000
     66 HB21        4.3350    2.4270    0.1990 hc        1 2Z0      0.124000
     67 HB31        4.6830    3.7440    1.0150 hc        1 2Z0      0.124000
     68 HG21        6.2040    4.3100   -0.4460 hc        1 2Z0      0.095500
     69 HG31        5.1580    4.1660   -1.6590 hc        1 2Z0      0.095500
     70 HD2         5.8920    1.6590   -0.8010 h1        1 2Z0      0.105500
     71 HD3         7.2100    2.4780   -1.1400 h1        1 2Z0      0.105500
     72 HE          6.2400    2.8430   -3.3080 hn        1 2Z0      0.240000
     73 HH21        4.2550    1.3590   -4.3410 DU        1 2Z0      0.250000
     74 HH11        6.3510   -1.1200   -3.0580 hn        1 2Z0      0.274000
     75 HH12        7.2660   -0.1330   -2.2130 hn        1 2Z0      0.274000
     76 HH22        4.5630   -0.1940   -4.3610 hn        1 2Z0      0.290000
     77 H11         3.5050    5.4410   -2.6620 h1        1 2Z0      0.148500
     78 H21         1.9090    5.2490   -2.6690 h1        1 2Z0      0.148500
@<TRIPOS>BOND
     1    1    2 1   
     2    1   43 1   
     3    2   14 1   
     4    3    4 1   
     5    3   44 1   
     6    4   45 1   
     7    5    6 1   
     8    5   10 1   
     9    6   11 1   
    10    7    8 1   
    11    7   46 1   
    12    8   47 1   
    13    9   10 1   
    14    9   48 1   
    15   11   12 1   
    16   11   13 1   
    17   12   49 1   
    18   12   50 1   
    19   12   51 1   
    20   13   52 1   
    21   13   53 1   
    22   13   54 1   
    23   14   15 1   
    24   14   16 1   
    25   17   18 1   
    26   17   55 1   
    27   18   19 1   
    28   18   21 1   
    29   18   56 1   
    30   19   20 1   
    31   19   26 1   
    32   21   22 1   
    33   21   57 1   
    34   21   58 1   
    35   22   23 1   
    36   22   59 1   
    37   22   60 1   
    38   23   24 1   
    39   23   25 1   
    40   26   27 1   
    41   26   61 1   
    42   27   28 1   
    43   27   62 1   
    44   27   63 1   
    45   28   29 1   
    46   28   31 1   
    47   30   33 1   
    48   31   32 1   
    49   31   64 1   
    50   32   33 1   
    51   32   34 1   
    52   32   65 1   
    53   33   41 1   
    54   34   35 1   
    55   34   66 1   
    56   34   67 1   
    57   35   36 1   
    58   35   68 1   
    59   35   69 1   
    60   36   37 1   
    61   36   70 1   
    62   36   71 1   
    63   37   38 1   
    64   37   72 1   
    65   38   39 1   
    66   38   40 1   
    67   39   76 1   
    68   40   74 1   
    69   40   75 1   
    70   41   42 1   
    71   41   77 1   
    72   41   78 1   
@<TRIPOS>SUBSTRUCTURE
     1 2Z0         1 TEMP              0 ****  ****    0 ROOT
