@<TRIPOS>MOLECULE
2Z3
   95    97     1     0     0
SMALL
bcc


@<TRIPOS>ATOM
      1 O1          6.0950    3.5080    0.3840 os        1 2Z3     -0.410600
      2 C2          5.5550    3.1660   -0.8900 c3        1 2Z3      0.092400
      3 C3          5.8040    1.6930   -1.2340 c3        1 2Z3      0.027500
      4 N4          5.3890    0.7640   -0.1890 n         1 2Z3     -0.408800
      5 C5          5.8820    1.1820    1.1130 c3        1 2Z3      0.027500
      6 C6          5.6190    2.6640    1.4260 c3        1 2Z3      0.092400
      7 C           4.0500    0.2800   -0.3050 c         1 2Z3      0.734100
      8 O           3.3560    0.5500   -1.3190 o         1 2Z3     -0.653100
      9 N           3.5120   -0.5350    0.7040 n         1 2Z3     -0.541900
     10 CA          2.2660   -1.2270    0.4510 c3        1 2Z3      0.039700
     11 C1          1.0670   -0.3620    0.9250 c         1 2Z3      0.656100
     12 O2          0.3370   -0.7290    1.8710 o         1 2Z3     -0.637100
     13 CB          2.1790   -2.5870    1.1650 c3        1 2Z3     -0.049100
     14 CG          3.2570   -3.5110    0.7250 ca        1 2Z3     -0.097300
     15 CD1         4.4000   -3.6930    1.5120 ca        1 2Z3     -0.128000
     16 CD2         3.1290   -4.2190   -0.4760 ca        1 2Z3     -0.128000
     17 CE1         5.4040   -4.5680    1.1000 ca        1 2Z3     -0.123500
     18 CE2         4.1350   -5.0920   -0.8860 ca        1 2Z3     -0.123500
     19 CZ          5.2740   -5.2660   -0.1000 ca        1 2Z3     -0.124000
     20 N1          0.8410    0.8050    0.2410 n         1 2Z3     -0.554900
     21 CA1        -0.1270    1.7810    0.6690 c3        1 2Z3      0.046700
     22 C4         -1.5450    1.4670    0.1230 c         1 2Z3      0.648100
     23 O3         -2.1210    2.2280   -0.6810 o         1 2Z3     -0.630100
     24 CB1         0.2380    3.2120    0.2480 c3        1 2Z3     -0.084400
     25 CG1         1.5370    3.6720    0.8700 c3        1 2Z3     -0.081400
     26 CD          1.7990    5.1330    0.5650 c3        1 2Z3     -0.081400
     27 CE          3.1090    5.5890    1.1530 c3        1 2Z3     -0.099100
     28 N2         -2.1380    0.3090    0.5720 n         1 2Z3     -0.552900
     29 CA2        -3.4610   -0.0860    0.1590 c3        1 2Z3      0.064700
     30 CB2        -3.6510   -1.6100    0.2170 c3        1 2Z3     -0.093400
     31 CG2        -2.7310   -2.3580   -0.7400 c3        1 2Z3     -0.057700
     32 CD11       -3.5350   -3.3240   -1.6030 c3        1 2Z3     -0.078900
     33 CD21       -1.6520   -3.1160    0.0230 c3        1 2Z3     -0.078900
     34 CE11       -2.6340   -4.0890   -2.5510 c3        1 2Z3     -0.077400
     35 CE21       -0.7510   -3.8890   -0.9190 c3        1 2Z3     -0.077400
     36 CZ1        -1.5460   -4.8290   -1.8010 c3        1 2Z3     -0.077400
     37 CH         -4.5730    0.6260    1.0060 c3        1 2Z3      0.292600
     38 OH1        -4.5220    0.2950    2.3760 oh        1 2Z3     -0.582300
     39 OH2        -4.4100    2.0180    1.0830 oh        1 2Z3     -0.582300
     40 CM         -6.0500    0.3340    0.4740 c3        1 2Z3      0.279600
     41 F1         -6.0880    0.0900   -0.8760 f         1 2Z3     -0.223300
     42 F2         -6.5290   -0.8440    1.0120 f         1 2Z3     -0.223300
     43 C7         -6.9920    1.5400    0.8430 c         1 2Z3      0.636100
     44 O4         -7.6260    2.1100   -0.0570 o         1 2Z3     -0.564100
     45 N3         -7.0950    1.8240    2.1840 n         1 2Z3     -0.527900
     46 C8         -7.8140    2.9770    2.6380 c3        1 2Z3      0.069300
     47 H21         4.4560    3.3970   -0.9030 h1        1 2Z3      0.062200
     48 H22         6.0990    3.8330   -1.6090 h1        1 2Z3      0.062200
     49 H31         5.2770    1.4470   -2.1980 h1        1 2Z3      0.075450
     50 H32         6.9100    1.5280   -1.3720 h1        1 2Z3      0.075450
     51 H51         5.4570    0.5600    1.9440 h1        1 2Z3      0.075450
     52 H52         6.9980    1.0140    1.0920 h1        1 2Z3      0.075450
     53 H61         6.2040    2.9790    2.3290 h1        1 2Z3      0.062200
     54 H62         4.5240    2.8520    1.5900 h1        1 2Z3      0.062200
     55 H           4.1380   -1.0050    1.3190 hn        1 2Z3      0.318500
     56 HA          2.1410   -1.4000   -0.6640 h1        1 2Z3      0.092700
     57 HB2         2.2110   -2.4340    2.2770 hc        1 2Z3      0.079700
     58 HB3         1.1700   -3.0220    0.9220 hc        1 2Z3      0.079700
     59 HD1         4.5000   -3.1540    2.4660 ha        1 2Z3      0.132000
     60 HD2         2.2260   -4.0860   -1.0930 ha        1 2Z3      0.132000
     61 HE1         6.2990   -4.7080    1.7240 ha        1 2Z3      0.135000
     62 HE2         4.0290   -5.6440   -1.8320 ha        1 2Z3      0.135000
     63 HZ          6.0670   -5.9560   -0.4250 ha        1 2Z3      0.135000
     64 H1          1.4130    1.0380   -0.5440 hn        1 2Z3      0.351500
     65 HA1        -0.1950    1.7440    1.8020 h1        1 2Z3      0.086700
     66 HB21        0.2940    3.2780   -0.8700 hc        1 2Z3      0.070700
     67 HB31       -0.6030    3.8810    0.5730 hc        1 2Z3      0.070700
     68 HG2         1.5010    3.5220    1.9810 hc        1 2Z3      0.039700
     69 HG3         2.3930    3.0590    0.4790 hc        1 2Z3      0.039700
     70 HD21        1.8100    5.2850   -0.5470 hc        1 2Z3      0.043700
     71 HD3         0.9610    5.7570    0.9750 hc        1 2Z3      0.043700
     72 HE11        3.9590    4.9820    0.7520 hc        1 2Z3      0.036033
     73 HE21        3.2930    6.6620    0.9030 hc        1 2Z3      0.036033
     74 HE3         3.1000    5.4830    2.2650 hc        1 2Z3      0.036033
     75 H2         -1.7010   -0.2210    1.2950 hn        1 2Z3      0.346500
     76 HA2        -3.6160    0.2630   -0.9090 h1        1 2Z3      0.099700
     77 HB22       -3.4890   -1.9740    1.2660 hc        1 2Z3      0.058700
     78 HB32       -4.7220   -1.8220   -0.0490 hc        1 2Z3      0.058700
     79 HG         -2.2250   -1.6240   -1.4290 hc        1 2Z3      0.059700
     80 HD12       -4.0850   -4.0450   -0.9430 hc        1 2Z3      0.045450
     81 HD13       -4.2980   -2.7530   -2.1920 hc        1 2Z3      0.045450
     82 HD23       -1.0370   -2.3940    0.6250 hc        1 2Z3      0.045450
     83 HD22       -2.1350   -3.8290    0.7420 hc        1 2Z3      0.045450
     84 HE12       -3.2480   -4.8190   -3.1400 hc        1 2Z3      0.039200
     85 HE13       -2.1670   -3.3760   -3.2800 hc        1 2Z3      0.039200
     86 HE23       -0.1750   -3.1710   -1.5610 hc        1 2Z3      0.039200
     87 HE22       -0.0060   -4.4780   -0.3230 hc        1 2Z3      0.039200
     88 HZ2        -2.0090   -5.6310   -1.1680 hc        1 2Z3      0.040200
     89 HZ3        -0.8600   -5.3310   -2.5310 hc        1 2Z3      0.040200
     90 HH1        -4.6770   -0.6580    2.4390 ho        1 2Z3      0.442000
     91 HH2        -4.0490    2.3250    0.2340 ho        1 2Z3      0.442000
     92 HN1        -6.3580    1.4950    2.7730 hn        1 2Z3      0.331500
     93 H11        -7.1410    3.8730    2.7310 h1        1 2Z3      0.047700
     94 H23        -8.6400    3.2220    1.9170 h1        1 2Z3      0.047700
     95 H3         -8.2550    2.7480    3.6440 h1        1 2Z3      0.047700
@<TRIPOS>BOND
     1    1    2 1   
     2    1    6 1   
     3    2    3 1   
     4    2   47 1   
     5    2   48 1   
     6    3    4 1   
     7    3   49 1   
     8    3   50 1   
     9    4    5 1   
    10    4    7 1   
    11    5    6 1   
    12    5   51 1   
    13    5   52 1   
    14    6   53 1   
    15    6   54 1   
    16    7    8 2   
    17    7    9 1   
    18    9   10 1   
    19    9   55 1   
    20   10   11 1   
    21   10   13 1   
    22   10   56 1   
    23   11   12 2   
    24   11   20 1   
    25   13   14 1   
    26   13   57 1   
    27   13   58 1   
    28   14   15 ar  
    29   14   16 ar  
    30   15   17 ar  
    31   15   59 1   
    32   16   18 ar  
    33   16   60 1   
    34   17   19 ar  
    35   17   61 1   
    36   18   19 ar  
    37   18   62 1   
    38   19   63 1   
    39   20   21 1   
    40   20   64 1   
    41   21   22 1   
    42   21   24 1   
    43   21   65 1   
    44   22   23 2   
    45   22   28 1   
    46   24   25 1   
    47   24   66 1   
    48   24   67 1   
    49   25   26 1   
    50   25   68 1   
    51   25   69 1   
    52   26   27 1   
    53   26   70 1   
    54   26   71 1   
    55   27   72 1   
    56   27   73 1   
    57   27   74 1   
    58   28   29 1   
    59   28   75 1   
    60   29   30 1   
    61   29   37 1   
    62   29   76 1   
    63   30   31 1   
    64   30   77 1   
    65   30   78 1   
    66   31   32 1   
    67   31   33 1   
    68   31   79 1   
    69   32   34 1   
    70   32   80 1   
    71   32   81 1   
    72   33   35 1   
    73   33   82 1   
    74   33   83 1   
    75   34   36 1   
    76   34   84 1   
    77   34   85 1   
    78   35   36 1   
    79   35   86 1   
    80   35   87 1   
    81   36   88 1   
    82   36   89 1   
    83   37   38 1   
    84   37   39 1   
    85   37   40 1   
    86   38   90 1   
    87   39   91 1   
    88   40   41 1   
    89   40   42 1   
    90   40   43 1   
    91   43   44 2   
    92   43   45 1   
    93   45   46 1   
    94   45   92 1   
    95   46   93 1   
    96   46   94 1   
    97   46   95 1   
@<TRIPOS>SUBSTRUCTURE
     1 2Z3         1 TEMP              0 ****  ****    0 ROOT
