@<TRIPOS>MOLECULE
2Z3
   95    95     1     0     0
SMALL
bcc


@<TRIPOS>ATOM
      1 O1          3.7320   -5.1590   -6.7250 os        1 2Z3     -0.264000
      2 C2          3.7990   -6.0260   -5.5860 c3        1 2Z3     -0.030000
      3 C3          2.6280   -5.8300   -4.6500 c3        1 2Z3     -0.072000
      4 N4          2.4380   -4.4540   -4.3020 n         1 2Z3     -0.292000
      5 C5          2.3670   -3.6000   -5.4010 c3        1 2Z3     -0.072000
      6 C6          3.5440   -3.7860   -6.3560 c3        1 2Z3     -0.030000
      7 C           2.3280   -3.9900   -2.9230 c2        1 2Z3      0.374000
      8 O           2.3980   -4.7930   -1.9990 o         1 2Z3     -0.414000
      9 N           2.1250   -2.5940   -2.6460 n         1 2Z3     -0.347000
     10 CA          1.6050   -2.1990   -1.4210 c3        1 2Z3      0.010000
     11 C1          1.4430   -0.6320   -1.4030 c2        1 2Z3      0.298000
     12 O2          2.2000    0.0690   -2.0630 o         1 2Z3     -0.391000
     13 CB          2.5500   -2.6270   -0.3050 c3        1 2Z3     -0.136000
     14 CG          2.0160   -3.9360    0.3810 c2        1 2Z3     -0.088000
     15 CD1         2.8920   -4.7130    1.1660 c2        1 2Z3     -0.137000
     16 CD2         0.6690   -4.2320    0.3550 c1        1 2Z3     -0.122000
     17 CE1         2.4020   -5.7750    1.9150 c1        1 2Z3     -0.128000
     18 CE2         0.1730   -5.3060    1.1120 c1        1 2Z3     -0.124500
     19 CZ          1.0490   -6.0750    1.8920 c1        1 2Z3     -0.124500
     20 N1          0.3590   -0.0090   -0.6120 n         1 2Z3     -0.366000
     21 CA1         0.2510    1.3900   -0.5470 c3        1 2Z3      0.015000
     22 C4         -1.1740    1.7740   -0.0910 c2        1 2Z3      0.290000
     23 O3         -2.0370    2.0780   -0.9380 o         1 2Z3     -0.370000
     24 CB1         0.5230    1.9880   -1.9080 c3        1 2Z3     -0.160000
     25 CG1         1.7910    2.8970   -1.8220 c3        1 2Z3     -0.162000
     26 CD          2.5580    2.8520   -3.1590 c3        1 2Z3     -0.156000
     27 CE          3.2560    4.1480   -3.3680 c3        1 2Z3     -0.210000
     28 N2         -1.4800    1.9060    1.3690 n         1 2Z3     -0.377000
     29 CA2        -2.2160    3.0210    1.8370 c3        1 2Z3      0.029000
     30 CB2        -3.7050    2.6680    1.8920 c3        1 2Z3     -0.161000
     31 CG2        -3.8570    1.4350    2.4140 c3        1 2Z3     -0.094000
     32 CD11       -3.8270    0.3110    1.2950 c3        1 2Z3     -0.152000
     33 CD21       -5.3740    1.1680    2.9060 c3        1 2Z3     -0.152000
     34 CE11       -4.0240   -1.1170    1.8620 c3        1 2Z3     -0.152500
     35 CE21       -5.5800   -0.2380    3.4830 c3        1 2Z3     -0.152500
     36 CZ1        -4.5870   -1.0890    3.0910 c3        1 2Z3     -0.155000
     37 CH         -1.7280    3.4080    3.2390 c3        1 2Z3      0.199000
     38 OH1        -0.3510    3.0070    3.4000 oh        1 2Z3     -0.325500
     39 OH2        -2.5260    2.7600    4.2140 oh        1 2Z3     -0.325500
     40 CM         -1.8460    4.9580    3.4170 c3        1 2Z3      0.188000
     41 F1         -2.2620    5.5150    2.2500 f         1 2Z3     -0.155500
     42 F2         -2.7360    5.2330    4.3860 f         1 2Z3     -0.155500
     43 C7         -0.4630    5.5410    3.8050 c2        1 2Z3      0.271000
     44 O4          0.5400    4.8850    3.6290 o         1 2Z3     -0.360000
     45 N3         -0.3820    6.8040    4.4560 n         1 2Z3     -0.352000
     46 C8          0.6160    7.7360    4.0780 c3        1 2Z3     -0.081000
     47 H21         4.6270   -5.8470   -5.1000 h1        1 2Z3      0.099750
     48 H22         3.8070   -6.9810   -5.9030 h1        1 2Z3      0.099750
     49 H31         1.8040   -6.1680   -5.0910 h1        1 2Z3      0.096500
     50 H32         2.7840   -6.3490   -3.8280 h1        1 2Z3      0.096500
     51 H51         2.3600   -2.6940   -5.0920 h1        1 2Z3      0.096500
     52 H52         1.5360   -3.7760   -5.8830 h1        1 2Z3      0.096500
     53 H61         3.3820   -3.2630   -7.1630 h1        1 2Z3      0.099750
     54 H62         4.3690   -3.4550   -5.9180 h1        1 2Z3      0.099750
     55 H           2.2700   -1.9860   -3.2860 hn        1 2Z3      0.225000
     56 HA          0.7310   -2.6190   -1.2880 h1        1 2Z3      0.132000
     57 HB2         2.6100   -1.9210    0.3540 hc        1 2Z3      0.120500
     58 HB3         3.4360   -2.7980   -0.6800 hc        1 2Z3      0.120500
     59 HD1         3.8590   -4.5010    1.1820 ha        1 2Z3      0.129000
     60 HD2         0.0690   -3.7020   -0.1800 ha        1 2Z3      0.139000
     61 HE1         3.0260   -6.3220    2.4710 ha        1 2Z3      0.132000
     62 HE2        -0.7850   -5.5180    1.0950 ha        1 2Z3      0.135000
     63 HZ          0.7050   -6.8260    2.4220 ha        1 2Z3      0.135000
     64 H1         -0.2830   -0.5420   -0.2040 hn        1 2Z3      0.264000
     65 HA1         0.8960    1.7340    0.0880 h1        1 2Z3      0.128000
     66 HB21        0.6730    1.2780   -2.5510 hc        1 2Z3      0.099500
     67 HB31       -0.2420    2.5240   -2.1890 hc        1 2Z3      0.099500
     68 HG2         2.3810    2.5720   -1.0920 hc        1 2Z3      0.090500
     69 HG3         1.5160    3.8300   -1.6330 hc        1 2Z3      0.090500
     70 HD21        1.9280    2.6960   -3.8930 hc        1 2Z3      0.078500
     71 HD3         3.2230    2.1210   -3.1340 hc        1 2Z3      0.078500
     72 HE11        3.8630    4.3050   -2.6380 hc        1 2Z3      0.072000
     73 HE21        2.5970    4.8720   -3.4070 hc        1 2Z3      0.072000
     74 HE3         3.7530    4.1180   -4.2020 hc        1 2Z3      0.072000
     75 H2         -1.1170    1.3270    1.9590 hn        1 2Z3      0.260000
     76 HA2        -2.0870    3.7580    1.2420 h1        1 2Z3      0.128000
     77 HB22       -4.0800    2.6880    0.9830 hc        1 2Z3      0.099000
     78 HB32       -4.1790    3.3260    2.4590 hc        1 2Z3      0.099000
     79 HG         -3.2030    1.2520    3.1330 hc        1 2Z3      0.104000
     80 HD12       -2.9770    0.3500    0.8390 hc        1 2Z3      0.081250
     81 HD13       -4.5550    0.4980    0.6360 hc        1 2Z3      0.081250
     82 HD23       -5.9900    1.2900    2.1280 hc        1 2Z3      0.081250
     83 HD22       -5.6070    1.8390    3.6050 hc        1 2Z3      0.081250
     84 HE12       -3.1190   -1.5780    1.9200 hc        1 2Z3      0.072500
     85 HE13       -4.6030   -1.6240    1.2570 hc        1 2Z3      0.072500
     86 HE23       -5.5890   -0.1850    4.4690 hc        1 2Z3      0.072500
     87 HE22       -6.4500   -0.5910    3.1710 hc        1 2Z3      0.072500
     88 HZ2        -4.9340   -2.0120    3.2540 hc        1 2Z3      0.077000
     89 HZ3        -3.8370   -0.9470    3.7320 hc        1 2Z3      0.077000
     90 HH1        -0.1700    2.8980    4.2710 ho        1 2Z3      0.247500
     91 HH2        -2.0670    2.6860    4.9680 ho        1 2Z3      0.247500
     92 HN1        -0.9620    7.0070    5.1280 hn        1 2Z3      0.242000
     93 H11         0.4720    8.5870    4.5620 h1        1 2Z3      0.092000
     94 H23         0.5620    7.8980    3.1070 h1        1 2Z3      0.092000
     95 H3          1.5060    7.3760    4.3020 h1        1 2Z3      0.092000
@<TRIPOS>BOND
     1    1    2 1   
     2    1    6 1   
     3    2    3 1   
     4    2   47 1   
     5    2   48 1   
     6    3    4 1   
     7    3   49 1   
     8    3   50 1   
     9    4    5 1   
    10    4    7 1   
    11    5    6 1   
    12    5   51 1   
    13    5   52 1   
    14    6   53 1   
    15    6   54 1   
    16    7    8 1   
    17    7    9 1   
    18    9   10 1   
    19    9   55 1   
    20   10   11 1   
    21   10   13 1   
    22   10   56 1   
    23   11   12 1   
    24   11   20 1   
    25   13   14 1   
    26   13   57 1   
    27   13   58 1   
    28   14   15 1   
    29   14   16 1   
    30   15   17 1   
    31   15   59 1   
    32   16   60 1   
    33   17   61 1   
    34   18   19 1   
    35   18   62 1   
    36   19   63 1   
    37   20   21 1   
    38   20   64 1   
    39   21   22 1   
    40   21   24 1   
    41   21   65 1   
    42   22   23 1   
    43   22   28 1   
    44   24   25 1   
    45   24   66 1   
    46   24   67 1   
    47   25   26 1   
    48   25   68 1   
    49   25   69 1   
    50   26   27 1   
    51   26   70 1   
    52   26   71 1   
    53   27   72 1   
    54   27   73 1   
    55   27   74 1   
    56   28   29 1   
    57   28   75 1   
    58   29   30 1   
    59   29   37 1   
    60   29   76 1   
    61   30   31 1   
    62   30   77 1   
    63   30   78 1   
    64   31   32 1   
    65   31   33 1   
    66   31   79 1   
    67   32   34 1   
    68   32   80 1   
    69   32   81 1   
    70   33   35 1   
    71   33   82 1   
    72   33   83 1   
    73   34   36 1   
    74   34   84 1   
    75   34   85 1   
    76   35   36 1   
    77   35   86 1   
    78   35   87 1   
    79   36   88 1   
    80   36   89 1   
    81   37   38 1   
    82   37   39 1   
    83   37   40 1   
    84   38   90 1   
    85   39   91 1   
    86   40   41 1   
    87   40   42 1   
    88   40   43 1   
    89   43   44 1   
    90   43   45 1   
    91   45   46 1   
    92   45   92 1   
    93   46   93 1   
    94   46   94 1   
    95   46   95 1   
@<TRIPOS>SUBSTRUCTURE
     1 2Z3         1 TEMP              0 ****  ****    0 ROOT
