@<TRIPOS>MOLECULE
2Z5
   54    54     1     0     0
SMALL
bcc


@<TRIPOS>ATOM
      1 C1         -5.2070    0.3340    0.4730 c         1 2Z5      0.648100
      2 C2         -6.3560   -0.1750    1.4340 c3        1 2Z5      0.573900
      3 O          -5.4890    1.2640   -0.3150 o         1 2Z5     -0.681100
      4 F1         -7.3270    0.7760    1.5850 f         1 2Z5     -0.208633
      5 F2         -6.9750   -1.2950    0.9630 f         1 2Z5     -0.208633
      6 F3         -5.9310   -0.4740    2.6990 f         1 2Z5     -0.208633
      7 N          -3.9970   -0.2560    0.5840 n         1 2Z5     -0.504900
      8 CA         -2.8840    0.0390   -0.2980 c3        1 2Z5      0.025700
      9 C          -1.8800   -1.1470   -0.2910 c         1 2Z5      0.641100
     10 O1         -1.7700   -1.8840    0.7050 o         1 2Z5     -0.572100
     11 CB         -2.0740    1.2950    0.0810 c3        1 2Z5     -0.108400
     12 CG         -2.7220    2.5810   -0.3920 c3        1 2Z5     -0.086400
     13 CD         -3.4150    3.3220    0.7340 c3        1 2Z5     -0.105400
     14 CE         -4.2910    4.4630    0.2320 c3        1 2Z5      0.107800
     15 NZ         -5.5520    3.9880   -0.4060 n4        1 2Z5     -0.836600
     16 N1         -1.1610   -1.3470   -1.4590 n         1 2Z5     -0.505900
     17 CA1         0.1150   -2.0350   -1.4060 c3        1 2Z5      0.016700
     18 C3          1.2670   -1.0440   -1.0560 c         1 2Z5      0.639100
     19 O2          1.0810    0.1870   -1.1370 o         1 2Z5     -0.622100
     20 CB1         0.4530   -2.7160   -2.7300 c3        1 2Z5     -0.105100
     21 N2          2.4570   -1.6190   -0.6670 n         1 2Z5     -0.451100
     22 C11         3.6400   -0.9540   -0.2930 ca        1 2Z5      0.082600
     23 C21         3.8520    0.4210   -0.5220 ca        1 2Z5     -0.169000
     24 C31         5.0490    1.0160   -0.1360 ca        1 2Z5     -0.054000
     25 C4          6.0490    0.2620    0.4770 ca        1 2Z5     -0.187300
     26 C5          5.8560   -1.1030    0.7020 ca        1 2Z5     -0.054000
     27 C6          4.6670   -1.7120    0.3240 ca        1 2Z5     -0.169000
     28 C7          7.3450    0.9300    0.9150 c3        1 2Z5      0.691200
     29 F11         7.3040    1.4460    2.1890 f         1 2Z5     -0.233300
     30 F21         8.4400    0.1020    0.9220 f         1 2Z5     -0.233300
     31 F31         7.7270    1.9940    0.1350 f         1 2Z5     -0.233300
     32 H          -3.8490   -0.9770    1.2680 hn        1 2Z5      0.371500
     33 HA         -3.3080    0.1770   -1.3400 h1        1 2Z5      0.089700
     34 HB2        -1.8980    1.3210    1.1880 hc        1 2Z5      0.091700
     35 HB3        -1.0580    1.2070   -0.4030 hc        1 2Z5      0.091700
     36 HG2        -1.9310    3.2480   -0.8310 hc        1 2Z5      0.055200
     37 HG3        -3.4530    2.3520   -1.2140 hc        1 2Z5      0.055200
     38 HD2        -4.0240    2.6060    1.3490 hc        1 2Z5      0.084200
     39 HD3        -2.6440    3.7730    1.4180 hc        1 2Z5      0.084200
     40 HE2        -4.5790    5.1300    1.0960 hx        1 2Z5      0.107200
     41 HE3        -3.7280    5.0760   -0.5300 hx        1 2Z5      0.107200
     42 HZ1        -6.1260    4.7790   -0.7050 hn        1 2Z5      0.467133
     43 HZ2        -5.3340    3.3910   -1.2160 hn        1 2Z5      0.467133
     44 HZ3        -6.0830    3.4000    0.2520 hn        1 2Z5      0.467133
     45 H1         -1.2020   -0.6210   -2.1430 hn        1 2Z5      0.311500
     46 HA1         0.0430   -2.8170   -0.5890 h1        1 2Z5      0.111700
     47 HB1         0.6150   -1.9650   -3.5410 hc        1 2Z5      0.062700
     48 HB21        1.3850   -3.3190   -2.6090 hc        1 2Z5      0.062700
     49 HB31       -0.3730   -3.4020   -3.0380 hc        1 2Z5      0.062700
     50 HN2         2.4820   -2.6140   -0.5910 hn        1 2Z5      0.328500
     51 H2          3.0780    1.0400   -1.0050 ha        1 2Z5      0.158000
     52 H3          5.2100    2.0910   -0.3220 ha        1 2Z5      0.159000
     53 H5          6.6530   -1.6990    1.1780 ha        1 2Z5      0.159000
     54 H6          4.5380   -2.7890    0.5110 ha        1 2Z5      0.158000
@<TRIPOS>BOND
     1    1    2 1   
     2    1    3 2   
     3    1    7 1   
     4    2    4 1   
     5    2    5 1   
     6    2    6 1   
     7    7    8 1   
     8    7   32 1   
     9    8    9 1   
    10    8   11 1   
    11    8   33 1   
    12    9   10 2   
    13    9   16 1   
    14   11   12 1   
    15   11   34 1   
    16   11   35 1   
    17   12   13 1   
    18   12   36 1   
    19   12   37 1   
    20   13   14 1   
    21   13   38 1   
    22   13   39 1   
    23   14   15 1   
    24   14   40 1   
    25   14   41 1   
    26   15   42 1   
    27   15   43 1   
    28   15   44 1   
    29   16   17 1   
    30   16   45 1   
    31   17   18 1   
    32   17   20 1   
    33   17   46 1   
    34   18   19 2   
    35   18   21 1   
    36   20   47 1   
    37   20   48 1   
    38   20   49 1   
    39   21   22 1   
    40   21   50 1   
    41   22   23 ar  
    42   22   27 ar  
    43   23   24 ar  
    44   23   51 1   
    45   24   25 ar  
    46   24   52 1   
    47   25   26 ar  
    48   25   28 1   
    49   26   27 ar  
    50   26   53 1   
    51   27   54 1   
    52   28   29 1   
    53   28   30 1   
    54   28   31 1   
@<TRIPOS>SUBSTRUCTURE
     1 2Z5         1 TEMP              0 ****  ****    0 ROOT
