@<TRIPOS>MOLECULE
2Z5
   54    51     1     0     0
SMALL
bcc


@<TRIPOS>ATOM
      1 C1          3.3810   -0.8090   -1.9590 c1        1 2Z5      0.272000
      2 C2          4.8150   -0.3950   -2.3480 c2        1 2Z5      0.404000
      3 O           2.4720   -0.6590   -2.7470 o         1 2Z5     -0.317000
      4 F1          4.8070    0.1710   -3.5470 f         1 2Z5     -0.141667
      5 F2          5.2810    0.4690   -1.4530 f         1 2Z5     -0.141667
      6 F3          5.6020   -1.4790   -2.3710 f         1 2Z5     -0.141667
      7 N           3.1180   -1.2900   -0.6590 n3        1 2Z5     -0.359000
      8 CA          1.7870   -1.5540   -0.2570 c3        1 2Z5      0.011000
      9 C           1.2790   -0.4160    0.5640 c2        1 2Z5      0.283000
     10 O1          1.6700   -0.2630    1.6870 o         1 2Z5     -0.343000
     11 CB          1.7490   -2.8630    0.5820 c3        1 2Z5     -0.170000
     12 CG          1.8090   -4.1120   -0.3920 c3        1 2Z5     -0.162000
     13 CD          1.8440   -5.4000    0.4290 c3        1 2Z5     -0.186000
     14 CE          1.9400   -6.6040   -0.5210 c3        1 2Z5     -0.139000
     15 NZ          2.0680   -7.8140    0.2380 n4        1 2Z5     -0.067000
     16 N1          0.3090    0.4940    0.0060 n         1 2Z5     -0.331000
     17 CA1         0.2650    1.8340    0.4440 c3        1 2Z5     -0.005000
     18 C3         -1.1660    2.3560    0.3430 c2        1 2Z5      0.283000
     19 O2         -1.9370    1.8830   -0.4960 o         1 2Z5     -0.356000
     20 CB1         1.1830    2.6900   -0.4300 c3        1 2Z5     -0.224000
     21 N2         -1.6030    3.4760    1.1950 n         1 2Z5     -0.313000
     22 C11        -2.9400    4.0180    1.0400 c2        1 2Z5      0.096000
     23 C21        -3.5910    4.5830    2.1330 c2        1 2Z5     -0.185000
     24 C31        -4.8090    5.2180    1.9610 c1        1 2Z5     -0.052000
     25 C4         -5.3830    5.2930    0.6940 c1        1 2Z5     -0.185000
     26 C5         -4.7370    4.7310   -0.3930 c1        1 2Z5     -0.055000
     27 C6         -3.5120    4.0920   -0.2210 c1        1 2Z5     -0.162000
     28 C7         -6.7700    5.9690    0.5140 c3        1 2Z5      0.470000
     29 F11        -6.6560    7.2870    0.7440 f         1 2Z5     -0.163667
     30 F21        -7.2110    5.7680   -0.7400 f         1 2Z5     -0.163667
     31 F31        -7.6370    5.4400    1.3770 f         1 2Z5     -0.163667
     32 H           3.8080   -1.3810   -0.0550 hn        1 2Z5      0.260000
     33 HA          1.2300   -1.6580   -1.0380 h1        1 2Z5      0.138000
     34 HB2         0.8970   -2.8930    1.1160 hc        1 2Z5      0.115500
     35 HB3         2.5180   -2.8870    1.1900 hc        1 2Z5      0.115500
     36 HG2         1.0250   -4.1150   -0.9620 hc        1 2Z5      0.108000
     37 HG3         2.5980   -4.0560   -0.9340 hc        1 2Z5      0.108000
     38 HD2         2.6220   -5.3900    1.0210 hc        1 2Z5      0.110000
     39 HD3         1.0220   -5.4680    0.9680 hc        1 2Z5      0.110000
     40 HE2         2.7380   -6.4970   -1.1100 hx        1 2Z5      0.157000
     41 HE3         1.1360   -6.6500   -1.0690 hx        1 2Z5      0.157000
     42 HZ1         2.2360   -8.5160   -0.3330 hn        1 2Z5      0.257000
     43 HZ2         1.2800   -7.9740    0.7020 hn        1 2Z5      0.257000
     44 HZ3         2.7580   -7.7310    0.8310 hn        1 2Z5      0.257000
     45 H1         -0.2850    0.2000   -0.6170 hn        1 2Z5      0.240000
     46 HA1         0.5610    1.8810    1.3630 h1        1 2Z5      0.143000
     47 HB1         2.0880    2.3090   -0.4250 hc        1 2Z5      0.100333
     48 HB21        1.2110    3.6060   -0.0750 hc        1 2Z5      0.100333
     49 HB31        0.8320    2.7060   -1.3670 hc        1 2Z5      0.100333
     50 HN2        -1.0610    3.7750    1.8760 hn        1 2Z5      0.239000
     51 H2         -3.1840    4.5300    3.0330 ha        1 2Z5      0.141000
     52 H3         -5.2700    5.6180    2.7340 ha        1 2Z5      0.158000
     53 H5         -5.1350    4.7830   -1.2710 ha        1 2Z5      0.157000
     54 H6         -3.0510    3.6910   -0.9960 ha        1 2Z5      0.178000
@<TRIPOS>BOND
     1    1    3 1   
     2    1    7 1   
     3    2    4 1   
     4    2    5 1   
     5    2    6 1   
     6    7    8 1   
     7    7   32 1   
     8    8    9 1   
     9    8   11 1   
    10    8   33 1   
    11    9   10 1   
    12    9   16 1   
    13   11   12 1   
    14   11   34 1   
    15   11   35 1   
    16   12   13 1   
    17   12   36 1   
    18   12   37 1   
    19   13   14 1   
    20   13   38 1   
    21   13   39 1   
    22   14   15 1   
    23   14   40 1   
    24   14   41 1   
    25   15   42 1   
    26   15   43 1   
    27   15   44 1   
    28   16   17 1   
    29   16   45 1   
    30   17   18 1   
    31   17   20 1   
    32   17   46 1   
    33   18   19 1   
    34   18   21 1   
    35   20   47 1   
    36   20   48 1   
    37   20   49 1   
    38   21   22 1   
    39   21   50 1   
    40   22   23 1   
    41   22   27 1   
    42   23   24 1   
    43   23   51 1   
    44   24   52 1   
    45   25   26 1   
    46   25   28 1   
    47   26   53 1   
    48   27   54 1   
    49   28   29 1   
    50   28   30 1   
    51   28   31 1   
@<TRIPOS>SUBSTRUCTURE
     1 2Z5         1 TEMP              0 ****  ****    0 ROOT
