@<TRIPOS>MOLECULE
2Z9
   64    63     1     0     0
SMALL
bcc


@<TRIPOS>ATOM
      1 C           5.1890    0.4270    0.8590 c         1 2Z9      0.632100
      2 O           4.5060    0.9360    1.7710 o         1 2Z9     -0.608100
      3 CH3         6.5890    0.9310    0.5840 c3        1 2Z9     -0.175100
      4 N           4.6940   -0.5380   -0.0140 n         1 2Z9     -0.525900
      5 CA          3.5240   -1.3300    0.3220 c3        1 2Z9      0.042700
      6 C1          2.2600   -0.5010    0.6440 c         1 2Z9      0.665100
      7 O1          1.3980   -0.9390    1.4380 o         1 2Z9     -0.648100
      8 CB          3.7770   -2.3690    1.4180 c3        1 2Z9     -0.212400
      9 CG          4.8790   -3.3740    1.0540 c         1 2Z9      0.905600
     10 OD1         5.6320   -3.1600    0.0530 o         1 2Z9     -0.863300
     11 OD2         5.0070   -4.3950    1.7890 o         1 2Z9     -0.863300
     12 N1          2.0400    0.6560   -0.0760 n         1 2Z9     -0.540900
     13 CA1         0.9440    1.5550    0.2050 c3        1 2Z9      0.041700
     14 C2         -0.3490    1.0530   -0.5020 c         1 2Z9      0.652100
     15 O2         -0.7200    1.5090   -1.6030 o         1 2Z9     -0.637100
     16 CB1         1.2090    3.0000   -0.2540 c3        1 2Z9     -0.064400
     17 CG1         2.2200    3.7070    0.6150 c3        1 2Z9     -0.198400
     18 CD          2.6000    5.0770    0.0300 c         1 2Z9      0.908600
     19 OE1         3.1450    5.1250   -1.1130 o         1 2Z9     -0.865300
     20 OE2         2.3780    6.1110    0.7280 o         1 2Z9     -0.865300
     21 N2         -1.0730    0.0860    0.1630 n         1 2Z9     -0.552900
     22 CA2        -2.2500   -0.5330   -0.3780 c3        1 2Z9      0.046700
     23 C3         -3.4750   -0.3780    0.5730 c         1 2Z9      0.637100
     24 O3         -3.3210   -0.3600    1.8170 o         1 2Z9     -0.669100
     25 CB2        -2.0980   -2.0500   -0.6560 c3        1 2Z9     -0.081700
     26 CG11       -1.2260   -2.2760   -1.8720 c3        1 2Z9     -0.096100
     27 CG2        -1.5510   -2.7970    0.5400 c3        1 2Z9     -0.096100
     28 N3         -4.6960   -0.2120   -0.0360 n         1 2Z9     -0.536900
     29 CA3        -5.9850   -0.1840    0.6280 c3        1 2Z9      0.079700
     30 C4         -5.9860    0.3530    2.0720 c3        1 2Z9      0.140400
     31 O4         -5.8010   -0.6450    3.0540 oh        1 2Z9     -0.632800
     32 CB3        -6.7390   -1.5170    0.5630 c3        1 2Z9     -0.212400
     33 CG3        -7.1810   -1.8650   -0.8640 c         1 2Z9      0.905600
     34 OD11       -6.3770   -1.6660   -1.8240 o         1 2Z9     -0.857800
     35 OD21       -8.3390   -2.3520   -1.0220 o         1 2Z9     -0.857800
     36 H1          6.8510    1.7030    1.3470 hc        1 2Z9      0.054033
     37 H2          7.3220    0.0920    0.6390 hc        1 2Z9      0.054033
     38 H3          6.6360    1.3960   -0.4300 hc        1 2Z9      0.054033
     39 H           5.4000   -1.1310   -0.4270 hn        1 2Z9      0.336500
     40 HA          3.2710   -1.9000   -0.6280 h1        1 2Z9      0.077700
     41 HB2         4.0640   -1.8570    2.3700 hc        1 2Z9      0.059200
     42 HB3         2.8260   -2.9280    1.6080 hc        1 2Z9      0.059200
     43 H4          2.8010    1.0670   -0.5700 hn        1 2Z9      0.328500
     44 HA1         0.7550    1.5640    1.3220 h1        1 2Z9      0.071700
     45 HB21        1.5530    3.0140   -1.3230 hc        1 2Z9      0.061700
     46 HB31        0.2310    3.5470   -0.2190 hc        1 2Z9      0.061700
     47 HG2         1.8070    3.8490    1.6450 hc        1 2Z9      0.033200
     48 HG3         3.1570    3.0990    0.7030 hc        1 2Z9      0.033200
     49 H5         -0.7080   -0.2990    1.0100 hn        1 2Z9      0.346500
     50 HA2        -2.4810   -0.0210   -1.3640 h1        1 2Z9      0.096700
     51 HB         -3.1320   -2.4400   -0.8860 hc        1 2Z9      0.062700
     52 HG11       -0.1990   -1.8720   -1.7040 hc        1 2Z9      0.038533
     53 HG12       -1.1460   -3.3690   -2.0840 hc        1 2Z9      0.038533
     54 HG13       -1.6640   -1.7700   -2.7670 hc        1 2Z9      0.038533
     55 HG21       -2.1090   -2.5050    1.4640 hc        1 2Z9      0.038533
     56 HG22       -1.6600   -3.8970    0.3850 hc        1 2Z9      0.038533
     57 HG23       -0.4660   -2.5700    0.6990 hc        1 2Z9      0.038533
     58 H6         -4.7860   -0.5310   -0.9900 hn        1 2Z9      0.352500
     59 HA3        -6.5880    0.5640    0.0200 h1        1 2Z9      0.049700
     60 HB22       -6.0990   -2.3460    0.9530 hc        1 2Z9      0.040200
     61 HB32       -7.6400   -1.4450    1.2220 hc        1 2Z9      0.040200
     62 H30        -4.9300   -1.0380    2.9020 ho        1 2Z9      0.430000
     63 HXT        -5.2190    1.1630    2.2000 h1        1 2Z9      0.034200
     64 H32        -7.0090    0.7660    2.2900 h1        1 2Z9      0.034200
@<TRIPOS>BOND
     1    1    2 2   
     2    1    3 1   
     3    1    4 1   
     4    3   36 1   
     5    3   37 1   
     6    3   38 1   
     7    4    5 1   
     8    4   39 1   
     9    5    6 1   
    10    5    8 1   
    11    5   40 1   
    12    6    7 2   
    13    6   12 1   
    14    8    9 1   
    15    8   41 1   
    16    8   42 1   
    17    9   10 1   
    18    9   11 1   
    19   12   13 1   
    20   12   43 1   
    21   13   14 1   
    22   13   16 1   
    23   13   44 1   
    24   14   15 2   
    25   14   21 1   
    26   16   17 1   
    27   16   45 1   
    28   16   46 1   
    29   17   18 1   
    30   17   47 1   
    31   17   48 1   
    32   18   19 1   
    33   18   20 1   
    34   21   22 1   
    35   21   49 1   
    36   22   23 1   
    37   22   25 1   
    38   22   50 1   
    39   23   24 2   
    40   23   28 1   
    41   25   26 1   
    42   25   27 1   
    43   25   51 1   
    44   26   52 1   
    45   26   53 1   
    46   26   54 1   
    47   27   55 1   
    48   27   56 1   
    49   27   57 1   
    50   28   29 1   
    51   28   58 1   
    52   29   30 1   
    53   29   32 1   
    54   29   59 1   
    55   30   31 1   
    56   30   63 1   
    57   30   64 1   
    58   31   62 1   
    59   32   33 1   
    60   32   60 1   
    61   32   61 1   
    62   33   34 1   
    63   33   35 1   
@<TRIPOS>SUBSTRUCTURE
     1 2Z9         1 TEMP              0 ****  ****    0 ROOT
