@<TRIPOS>MOLECULE
2Z9
   64    62     1     0     0
SMALL
bcc


@<TRIPOS>ATOM
      1 C          -0.1370   -4.4790    5.4370 c1        1 2Z9      0.292000
      2 O           0.9920   -4.0670    5.6530 o         1 2Z9     -0.412000
      3 CH3        -0.9270   -5.1430    6.5500 c2        1 2Z9     -0.239000
      4 N          -0.6940   -4.3890    4.1160 n3        1 2Z9     -0.340000
      5 CA          0.1120   -3.9700    3.0380 c3        1 2Z9      0.026000
      6 C1         -0.7040   -3.0820    2.1140 c2        1 2Z9      0.291000
      7 O1         -1.6180   -3.5540    1.4700 o         1 2Z9     -0.417000
      8 CB          0.6050   -5.1970    2.2610 c3        1 2Z9     -0.227000
      9 CG          1.8210   -5.7870    2.9610 c2        1 2Z9      0.325000
     10 OD1         1.7100   -6.8450    3.6270 o         1 2Z9     -0.591000
     11 OD2         2.9420   -5.2000    2.8870 o         1 2Z9     -0.591000
     12 N1         -0.4030   -1.6760    2.0130 n         1 2Z9     -0.362000
     13 CA1        -1.0460   -0.8800    1.0190 c3        1 2Z9      0.019000
     14 C2         -0.0830    0.2130    0.5340 c2        1 2Z9      0.284000
     15 O2          0.4870    0.9260    1.3440 o         1 2Z9     -0.390000
     16 CB1        -2.2740   -0.2420    1.6050 c3        1 2Z9     -0.140000
     17 CG1        -3.4780   -0.6180    0.7860 c3        1 2Z9     -0.222000
     18 CD         -4.7360   -0.2230    1.5320 c2        1 2Z9      0.328000
     19 OE1        -5.4770   -1.1060    2.0220 o         1 2Z9     -0.595500
     20 OE2        -5.0260    0.9850    1.6720 o         1 2Z9     -0.595500
     21 N2          0.0720    0.4640   -0.8950 n         1 2Z9     -0.356000
     22 CA2         1.0960    1.3520   -1.3600 c3        1 2Z9      0.010000
     23 C3          0.5510    2.2060   -2.4890 c2        1 2Z9      0.299000
     24 O3         -0.1650    1.7090   -3.3330 o         1 2Z9     -0.375000
     25 CB2         2.2810    0.5420   -1.8640 c3        1 2Z9     -0.123000
     26 CG11        3.5690    1.2750   -1.5460 c3        1 2Z9     -0.219500
     27 CG2         2.1630    0.3510   -3.3900 c3        1 2Z9     -0.219500
     28 N3          0.8280    3.6300   -2.5190 n         1 2Z9     -0.375000
     29 CA3         0.2850    4.4520   -3.5830 c3        1 2Z9      0.002000
     30 C4          1.3970    5.1440   -4.2930 c3        1 2Z9     -0.016000
     31 O4          0.9450    5.5890   -5.5600 oh        1 2Z9     -0.366000
     32 CB3        -0.6570    5.4830   -2.9950 c3        1 2Z9     -0.232000
     33 CG3        -1.4550    6.1450   -4.1190 c2        1 2Z9      0.327000
     34 OD11       -2.3170    5.4820   -4.7550 o         1 2Z9     -0.588000
     35 OD21       -1.2510    7.3500   -4.4080 o         1 2Z9     -0.588000
     36 H1         -0.3610   -5.2160    7.3590 ha        1 2Z9      0.096667
     37 H2         -1.2060   -6.0410    6.2630 ha        1 2Z9      0.096667
     38 H3         -1.7170   -4.6070    6.7530 ha        1 2Z9      0.096667
     39 H          -1.5850   -4.5510    3.9840 hn        1 2Z9      0.267000
     40 HA          0.8760   -3.4710    3.3780 h1        1 2Z9      0.113000
     41 HB2         0.8510   -4.9280    1.3490 hc        1 2Z9      0.094000
     42 HB3        -0.1070   -5.8670    2.2230 hc        1 2Z9      0.094000
     43 H4          0.2200   -1.3000    2.5660 hn        1 2Z9      0.259000
     44 HA1        -1.3000   -1.4430    0.2700 h1        1 2Z9      0.113000
     45 HB21       -2.3960   -0.5530    2.5250 hc        1 2Z9      0.104000
     46 HB31       -2.1680    0.7370    1.6010 hc        1 2Z9      0.104000
     47 HG2        -3.4790   -1.5830    0.6320 hc        1 2Z9      0.065500
     48 HG3        -3.4470   -0.1490   -0.0730 hc        1 2Z9      0.065500
     49 H5         -0.4560    0.0210   -1.4960 hn        1 2Z9      0.257000
     50 HA2         1.3850    1.9290   -0.6260 h1        1 2Z9      0.121000
     51 HB          2.2870   -0.3380   -1.4230 hc        1 2Z9      0.096000
     52 HG11        3.8090    1.8490   -2.2970 hc        1 2Z9      0.078833
     53 HG12        4.2900    0.6200   -1.3880 hc        1 2Z9      0.078833
     54 HG13        3.4420    1.8240   -0.7430 hc        1 2Z9      0.078833
     55 HG21        1.2780   -0.0340   -3.6060 hc        1 2Z9      0.078833
     56 HG22        2.8750   -0.2610   -3.7020 hc        1 2Z9      0.078833
     57 HG23        2.2580    1.2140   -3.8330 hc        1 2Z9      0.078833
     58 H6          1.3600    4.0060   -1.8790 hn        1 2Z9      0.207000
     59 HA3        -0.2030    3.8870   -4.2140 h1        1 2Z9      0.130000
     60 HB22       -0.1380    6.1640   -2.5190 hc        1 2Z9      0.071500
     61 HB32       -1.2660    5.0500   -2.3770 hc        1 2Z9      0.071500
     62 H30         1.6500    5.7750   -6.0800 ho        1 2Z9      0.243000
     63 HXT         1.6920    5.9100   -3.7660 h1        1 2Z9      0.072000
     64 H32         2.1480    4.5200   -4.4140 h1        1 2Z9      0.072000
@<TRIPOS>BOND
     1    1    2 1   
     2    1    4 1   
     3    3   36 1   
     4    3   37 1   
     5    3   38 1   
     6    4    5 1   
     7    4   39 1   
     8    5    6 1   
     9    5    8 1   
    10    5   40 1   
    11    6    7 1   
    12    6   12 1   
    13    8    9 1   
    14    8   41 1   
    15    8   42 1   
    16    9   10 1   
    17    9   11 1   
    18   12   13 1   
    19   12   43 1   
    20   13   14 1   
    21   13   16 1   
    22   13   44 1   
    23   14   15 1   
    24   14   21 1   
    25   16   17 1   
    26   16   45 1   
    27   16   46 1   
    28   17   18 1   
    29   17   47 1   
    30   17   48 1   
    31   18   19 1   
    32   18   20 1   
    33   21   22 1   
    34   21   49 1   
    35   22   23 1   
    36   22   25 1   
    37   22   50 1   
    38   23   24 1   
    39   23   28 1   
    40   25   26 1   
    41   25   27 1   
    42   25   51 1   
    43   26   52 1   
    44   26   53 1   
    45   26   54 1   
    46   27   55 1   
    47   27   56 1   
    48   27   57 1   
    49   28   29 1   
    50   28   58 1   
    51   29   30 1   
    52   29   32 1   
    53   29   59 1   
    54   30   31 1   
    55   30   63 1   
    56   30   64 1   
    57   31   62 1   
    58   32   33 1   
    59   32   60 1   
    60   32   61 1   
    61   33   34 1   
    62   33   35 1   
@<TRIPOS>SUBSTRUCTURE
     1 2Z9         1 TEMP              0 ****  ****    0 ROOT
