@<TRIPOS>MOLECULE
2ZE
   58    61     1     0     0
SMALL
bcc


@<TRIPOS>ATOM
      1 OAC         0.0140   -0.1120   -0.1610 oh        1 2ZE     -0.605800
      2 CAV         1.4120   -0.2640   -0.0430 c3        1 2ZE      0.141400
      3 CAN         1.9070   -0.1300    1.4190 c3        1 2ZE     -0.107000
      4 CAW         1.4020   -1.3490    2.1730 c3        1 2ZE     -0.086100
      5 CAT         1.2510    1.1290    2.0320 c3        1 2ZE      0.139100
      6 OAB         1.2000    2.1930    1.0900 oh        1 2ZE     -0.612800
      7 CAU         1.8960    1.5870    3.3320 c3        1 2ZE     -0.107400
      8 CAQ         3.4000    1.7080    3.2350 c3        1 2ZE     -0.077400
      9 CAF         4.0810    0.4300    2.7390 c3        1 2ZE     -0.014000
     10 CAS         3.9010   -0.6630    3.7910 c3        1 2ZE     -0.090100
     11 CAH         3.4370    0.0320    1.3840 c3        1 2ZE     -0.045700
     12 CAO         4.1310   -1.1510    0.7130 c3        1 2ZE     -0.073400
     13 CAM         5.6370   -0.9700    0.5870 c3        1 2ZE     -0.066400
     14 CAG         6.1930   -0.6400    1.9480 c3        1 2ZE     -0.068700
     15 CAK         7.7040   -0.5100    2.1270 c3        1 2ZE     -0.074400
     16 CAJ         7.9030    0.7030    3.0550 c3        1 2ZE     -0.056700
     17 CAI         6.5190    0.9550    3.6850 c3        1 2ZE     -0.067400
     18 CAE         5.5890    0.6840    2.4820 c3        1 2ZE     -0.042000
     19 CAL         5.8180    1.8880    1.5480 c3        1 2ZE     -0.064400
     20 CAR         7.2500    2.1120    1.0990 c3        1 2ZE     -0.094400
     21 CAP         8.2750    1.9430    2.2250 c3        1 2ZE      0.160800
     22 OAA         8.2480    3.0570    3.1140 oh        1 2ZE     -0.599800
     23 CAX         9.6990    1.8190    1.6520 c3        1 2ZE      0.100400
     24 OAD        10.0040    3.0680    1.0490 oh        1 2ZE     -0.612800
     25 H1         -0.1890    0.8230   -0.0160 ho        1 2ZE      0.416000
     26 H2          1.6100   -1.3040   -0.4190 h1        1 2ZE      0.043700
     27 H3          1.9380    0.4840   -0.6940 h1        1 2ZE      0.043700
     28 H4          1.9960   -2.2560    1.9070 hc        1 2ZE      0.042033
     29 H5          1.4490   -1.1990    3.2760 hc        1 2ZE      0.042033
     30 H6          0.3340   -1.5360    1.8920 hc        1 2ZE      0.042033
     31 H7          0.1590    0.9040    2.2210 h1        1 2ZE      0.078700
     32 H8          2.1060    2.4710    0.9140 ho        1 2ZE      0.403000
     33 H9          1.4700    2.5910    3.6000 hc        1 2ZE      0.053700
     34 H10         1.6020    0.8780    4.1490 hc        1 2ZE      0.053700
     35 H11         3.8250    1.9750    4.2380 hc        1 2ZE      0.045700
     36 H12         3.6260    2.5570    2.5370 hc        1 2ZE      0.045700
     37 H13         3.8140   -1.6690    3.3140 hc        1 2ZE      0.037367
     38 H14         4.7550   -0.6930    4.5080 hc        1 2ZE      0.037367
     39 H15         2.9820   -0.4930    4.4010 hc        1 2ZE      0.037367
     40 H16         3.5960    0.9180    0.6970 hc        1 2ZE      0.036700
     41 H17         3.7060   -1.2900   -0.3160 hc        1 2ZE      0.042700
     42 H18         3.9280   -2.0940    1.2860 hc        1 2ZE      0.042700
     43 H19         6.0950   -1.9160    0.1990 hc        1 2ZE      0.042200
     44 H20         5.8720   -0.1580   -0.1470 hc        1 2ZE      0.042200
     45 H21         5.8710   -1.4710    2.6430 hc        1 2ZE      0.050700
     46 H22         8.2250   -0.3880    1.1470 hc        1 2ZE      0.042700
     47 H23         8.1180   -1.4300    2.6110 hc        1 2ZE      0.042700
     48 H24         8.6800    0.5150    3.8330 hc        1 2ZE      0.063700
     49 H25         6.3570    0.2460    4.5290 hc        1 2ZE      0.058700
     50 H26         6.4180    1.9960    4.0730 hc        1 2ZE      0.058700
     51 H27         5.1920    1.8110    0.6240 hc        1 2ZE      0.042700
     52 H28         5.4990    2.8120    2.1040 hc        1 2ZE      0.042700
     53 H29         7.3460    3.1510    0.6830 hc        1 2ZE      0.049700
     54 H30         7.5030    1.4010    0.2700 hc        1 2ZE      0.049700
     55 H31         8.5300    3.8260    2.6010 ho        1 2ZE      0.417000
     56 H32        10.4200    1.6030    2.4850 h1        1 2ZE      0.035200
     57 H33         9.7580    1.0060    0.8830 h1        1 2ZE      0.035200
     58 H34        10.9480    3.0610    0.8560 ho        1 2ZE      0.407000
@<TRIPOS>BOND
     1    1    2 1   
     2    1   25 1   
     3    2    3 1   
     4    2   26 1   
     5    2   27 1   
     6    3    4 1   
     7    3    5 1   
     8    3   11 1   
     9    4   28 1   
    10    4   29 1   
    11    4   30 1   
    12    5    6 1   
    13    5    7 1   
    14    5   31 1   
    15    6   32 1   
    16    7    8 1   
    17    7   33 1   
    18    7   34 1   
    19    8    9 1   
    20    8   35 1   
    21    8   36 1   
    22    9   10 1   
    23    9   11 1   
    24    9   18 1   
    25   10   37 1   
    26   10   38 1   
    27   10   39 1   
    28   11   12 1   
    29   11   40 1   
    30   12   13 1   
    31   12   41 1   
    32   12   42 1   
    33   13   14 1   
    34   13   43 1   
    35   13   44 1   
    36   14   15 1   
    37   14   18 1   
    38   14   45 1   
    39   15   16 1   
    40   15   46 1   
    41   15   47 1   
    42   16   17 1   
    43   16   21 1   
    44   16   48 1   
    45   17   18 1   
    46   17   49 1   
    47   17   50 1   
    48   18   19 1   
    49   19   20 1   
    50   19   51 1   
    51   19   52 1   
    52   20   21 1   
    53   20   53 1   
    54   20   54 1   
    55   21   22 1   
    56   21   23 1   
    57   22   55 1   
    58   23   24 1   
    59   23   56 1   
    60   23   57 1   
    61   24   58 1   
@<TRIPOS>SUBSTRUCTURE
     1 2ZE         1 TEMP              0 ****  ****    0 ROOT
