@<TRIPOS>MOLECULE
2ZF
   66    65     1     0     0
SMALL
bcc


@<TRIPOS>ATOM
      1 O1          2.9540   -0.3250    1.3870 o         1 2ZF     -0.607000
      2 C           3.6580   -0.7000    0.4300 c         1 2ZF      0.742100
      3 O2          4.6830   -1.6070    0.6940 os        1 2ZF     -0.454900
      4 CT          5.7670   -1.1010    1.5110 c3        1 2ZF      0.183800
      5 C1          5.3900   -1.2610    2.9770 c3        1 2ZF     -0.119100
      6 C2          6.9470   -1.9980    1.1510 c3        1 2ZF     -0.119100
      7 C3          6.0810    0.3480    1.1810 c3        1 2ZF     -0.119100
      8 N           3.4600   -0.4490   -0.9050 n         1 2ZF     -0.531900
      9 CA          2.5610    0.6060   -1.3150 c3        1 2ZF      0.053700
     10 C4          1.1290    0.0430   -1.5290 c         1 2ZF      0.652100
     11 O           0.6150   -0.0320   -2.6640 o         1 2ZF     -0.639100
     12 CB          3.0220    1.2990   -2.6060 c3        1 2ZF     -0.066400
     13 CG          4.2520    2.1480   -2.3970 c3        1 2ZF     -0.200400
     14 CD          5.5590    1.3570   -2.2700 c         1 2ZF      0.899600
     15 OE1         5.6240    0.1730   -2.7250 o         1 2ZF     -0.852300
     16 OE2         6.5390    1.9260   -1.7080 o         1 2ZF     -0.852300
     17 N1          0.4440   -0.3420   -0.3980 n         1 2ZF     -0.557900
     18 CA1        -0.8570   -0.9550   -0.4740 c3        1 2ZF      0.040700
     19 C5         -1.8100   -0.3960    0.6150 c         1 2ZF      0.644100
     20 O3         -1.4060   -0.1440    1.7700 o         1 2ZF     -0.629100
     21 CB1        -0.8370   -2.4900   -0.2980 c3        1 2ZF     -0.096400
     22 CG1        -1.7250   -3.1820   -1.3230 c3        1 2ZF     -0.069700
     23 CD1        -1.0560   -3.2140   -2.6820 c3        1 2ZF     -0.094100
     24 CD2        -2.0520   -4.5870   -0.8620 c3        1 2ZF     -0.094100
     25 N2         -3.1190   -0.1920    0.2420 n         1 2ZF     -0.549900
     26 CA2        -4.1860    0.0150    1.1980 c3        1 2ZF     -0.016300
     27 C6         -5.4620   -0.7850    0.8650 c         1 2ZF      0.457100
     28 O4         -5.6470   -1.2500   -0.2640 o         1 2ZF     -0.582100
     29 CB2        -4.6110    1.4840    1.3280 c3        1 2ZF     -0.144400
     30 CG2        -3.4840    2.3550    1.9190 c3        1 2ZF      0.382900
     31 F1         -3.0060    3.2830    1.0140 f         1 2ZF     -0.268800
     32 F2         -3.9360    3.1750    2.9360 f         1 2ZF     -0.268800
     33 CD3        -6.4450   -0.9360    2.0420 c         1 2ZF      0.862600
     34 OE11       -6.3810   -2.0020    2.7020 o         1 2ZF     -0.802800
     35 OE21       -7.2210    0.0330    2.2580 o         1 2ZF     -0.802800
     36 H11         5.2300   -2.3380    3.2180 hc        1 2ZF      0.049811
     37 H12         6.2050   -0.8570    3.6220 hc        1 2ZF      0.049811
     38 H13         4.4410   -0.7060    3.1830 hc        1 2ZF      0.049811
     39 H21         7.2290   -1.8390    0.0830 hc        1 2ZF      0.049811
     40 H22         7.8120   -1.7440    1.8060 hc        1 2ZF      0.049811
     41 H23         6.6740   -3.0700    1.2970 hc        1 2ZF      0.049811
     42 H31         5.2440    1.0080    1.5120 hc        1 2ZF      0.049811
     43 H32         7.0140    0.6590    1.7070 hc        1 2ZF      0.049811
     44 H33         6.2320    0.4870    0.0750 hc        1 2ZF      0.049811
     45 H           4.2080   -0.6760   -1.5470 hn        1 2ZF      0.384500
     46 HA          2.4910    1.3840   -0.4930 h1        1 2ZF      0.070700
     47 HB2         3.2280    0.5300   -3.3980 hc        1 2ZF      0.058700
     48 HB3         2.1690    1.9360   -2.9610 hc        1 2ZF      0.058700
     49 HG2         4.3700    2.8320   -3.2780 hc        1 2ZF      0.032700
     50 HG3         4.1350    2.7910   -1.4870 hc        1 2ZF      0.032700
     51 H1          0.8870   -0.3080    0.4970 hn        1 2ZF      0.353500
     52 HA1        -1.2730   -0.7130   -1.5020 h1        1 2ZF      0.091700
     53 HB21        0.2090   -2.8820   -0.4020 hc        1 2ZF      0.058700
     54 HB31       -1.1820   -2.7500    0.7380 hc        1 2ZF      0.058700
     55 HG         -2.6920   -2.6090   -1.4120 hc        1 2ZF      0.054700
     56 HD11       -1.7720   -3.5810   -3.4560 hc        1 2ZF      0.034033
     57 HD12       -0.7020   -2.1930   -2.9730 hc        1 2ZF      0.034033
     58 HD13       -0.1720   -3.8970   -2.6670 hc        1 2ZF      0.034033
     59 HD21       -2.6300   -4.5590    0.0930 hc        1 2ZF      0.034033
     60 HD22       -2.6670   -5.1110   -1.6330 hc        1 2ZF      0.034033
     61 HD23       -1.1160   -5.1730   -0.6960 hc        1 2ZF      0.034033
     62 H14        -3.4110   -0.4870   -0.6640 hn        1 2ZF      0.318500
     63 HA2        -3.8310   -0.3440    2.2130 h1        1 2ZF      0.096700
     64 HB22       -4.9120    1.8960    0.3320 hc        1 2ZF      0.095200
     65 HB1        -5.5110    1.5190    2.0060 hc        1 2ZF      0.095200
     66 HG1        -2.6280    1.7150    2.2980 h2        1 2ZF      0.102700
@<TRIPOS>BOND
     1    1    2 2   
     2    2    3 1   
     3    2    8 1   
     4    3    4 1   
     5    4    5 1   
     6    4    6 1   
     7    4    7 1   
     8    5   36 1   
     9    5   37 1   
    10    5   38 1   
    11    6   39 1   
    12    6   40 1   
    13    6   41 1   
    14    7   42 1   
    15    7   43 1   
    16    7   44 1   
    17    8    9 1   
    18    8   45 1   
    19    9   10 1   
    20    9   12 1   
    21    9   46 1   
    22   10   11 2   
    23   10   17 1   
    24   12   13 1   
    25   12   47 1   
    26   12   48 1   
    27   13   14 1   
    28   13   49 1   
    29   13   50 1   
    30   14   15 1   
    31   14   16 1   
    32   17   18 1   
    33   17   51 1   
    34   18   19 1   
    35   18   21 1   
    36   18   52 1   
    37   19   20 2   
    38   19   25 1   
    39   21   22 1   
    40   21   53 1   
    41   21   54 1   
    42   22   23 1   
    43   22   24 1   
    44   22   55 1   
    45   23   56 1   
    46   23   57 1   
    47   23   58 1   
    48   24   59 1   
    49   24   60 1   
    50   24   61 1   
    51   25   26 1   
    52   25   62 1   
    53   26   27 1   
    54   26   29 1   
    55   26   63 1   
    56   27   28 2   
    57   27   33 1   
    58   29   30 1   
    59   29   64 1   
    60   29   65 1   
    61   30   31 1   
    62   30   32 1   
    63   30   66 1   
    64   33   34 1   
    65   33   35 1   
@<TRIPOS>SUBSTRUCTURE
     1 2ZF         1 TEMP              0 ****  ****    0 ROOT
