@<TRIPOS>MOLECULE
2ZF
   66    64     1     0     0
SMALL
bcc


@<TRIPOS>ATOM
      1 O1          1.7200   -1.4760    4.0760 o         1 2ZF     -0.647500
      2 C           1.7600   -0.3420    3.6400 c1        1 2ZF      0.622500
      3 O2          2.8840    0.4650    3.8830 o         1 2ZF     -0.427500
      4 CT          3.3790    0.3710    5.1950 c3        1 2ZF      0.258500
      5 C1          3.4840   -1.0860    5.5910 c3        1 2ZF     -0.124100
      6 C2          4.7480    1.0120    5.2640 c3        1 2ZF     -0.124100
      7 C3          2.4390    1.0850    6.1410 c3        1 2ZF     -0.124100
      8 N           0.6920    0.1500    2.8470 n3        1 2ZF     -0.399400
      9 CA         -0.0180   -0.7300    1.9880 c3        1 2ZF     -0.002000
     10 C4         -0.5620    0.0460    0.8090 c         1 2ZF      0.649100
     11 O          -1.3870    0.9190    0.9850 o         1 2ZF     -0.631100
     12 CB         -1.1640   -1.3600    2.7480 c3        1 2ZF     -0.066400
     13 CG         -1.1110   -2.8640    2.5840 c3        1 2ZF     -0.201400
     14 CD         -2.1470   -3.5050    3.4820 c         1 2ZF      0.907600
     15 OE1        -3.3720   -3.3680    3.2280 o         1 2ZF     -0.854300
     16 OE2        -1.7830   -4.1840    4.4780 o         1 2ZF     -0.854300
     17 N1         -0.0710   -0.2130   -0.4980 n         1 2ZF     -0.560900
     18 CA1        -0.3850    0.6720   -1.5630 c3        1 2ZF      0.040700
     19 C5         -0.7360   -0.1280   -2.7960 c         1 2ZF      0.647100
     20 O3          0.1310   -0.7280   -3.3990 o         1 2ZF     -0.619100
     21 CB1         0.8100    1.5520   -1.8560 c3        1 2ZF     -0.093400
     22 CG1         0.3480    2.8180   -2.5450 c3        1 2ZF     -0.072700
     23 CD1         1.2770    3.1350   -3.6960 c3        1 2ZF     -0.087600
     24 CD2         0.3610    3.9640   -1.5560 c3        1 2ZF     -0.087600
     25 N2         -2.0760   -0.1600   -3.2630 n         1 2ZF     -0.553900
     26 CA2        -2.3870   -0.8140   -4.4840 c3        1 2ZF      0.000700
     27 C6         -3.0150    0.1750   -5.4410 c         1 2ZF      0.450100
     28 O4         -3.9040    0.9090   -5.0570 o         1 2ZF     -0.573100
     29 CB2        -3.3560   -1.9440   -4.2190 c3        1 2ZF     -0.142400
     30 CG2        -3.2920   -2.9410   -5.3550 c3        1 2ZF      0.359900
     31 F1         -4.1660   -3.9330   -5.1290 f         1 2ZF     -0.270800
     32 F2         -3.6020   -2.3260   -6.5060 f         1 2ZF     -0.270800
     33 CD3        -2.5360    0.2510   -6.8740 c         1 2ZF      0.862600
     34 OE11       -3.1710   -0.3460   -7.7820 o         1 2ZF     -0.803800
     35 OE21       -1.5040    0.9130   -7.1580 o         1 2ZF     -0.803800
     36 H11         2.6240   -1.3880    5.9530 hc        1 2ZF      0.052589
     37 H12         3.7140   -1.6230    4.8050 hc        1 2ZF      0.052589
     38 H13         4.1800   -1.1890    6.2730 hc        1 2ZF      0.052589
     39 H21         5.3750    0.5030    4.7090 hc        1 2ZF      0.052589
     40 H22         4.6940    1.9330    4.9360 hc        1 2ZF      0.052589
     41 H23         5.0610    1.0140    6.1930 hc        1 2ZF      0.052589
     42 H31         1.7110    0.4810    6.3960 hc        1 2ZF      0.052589
     43 H32         2.9310    1.3610    6.9430 hc        1 2ZF      0.052589
     44 H33         2.0680    1.8760    5.6970 hc        1 2ZF      0.052589
     45 H           0.4840    1.0380    2.8620 hn        1 2ZF      0.346700
     46 HA          0.5840   -1.4300    1.6680 h1        1 2ZF      0.065700
     47 HB2        -2.0130   -1.0240    2.3960 hc        1 2ZF      0.061200
     48 HB3        -1.0910   -1.1330    3.6960 hc        1 2ZF      0.061200
     49 HG2        -0.2220   -3.1870    2.8300 hc        1 2ZF      0.034700
     50 HG3        -1.2980   -3.0970    1.6530 hc        1 2ZF      0.034700
     51 H1          0.4640   -0.9370   -0.6490 hn        1 2ZF      0.350500
     52 HA1        -1.1460    1.2310   -1.3090 h1        1 2ZF      0.088700
     53 HB21        1.4330    1.0730   -2.4390 hc        1 2ZF      0.059200
     54 HB31        1.2600    1.7820   -1.0180 hc        1 2ZF      0.059200
     55 HG         -0.5590    2.6920   -2.8830 hc        1 2ZF      0.071700
     56 HD11        2.1820    3.2880   -3.3530 hc        1 2ZF      0.030200
     57 HD12        1.2890    2.3810   -4.3230 hc        1 2ZF      0.030200
     58 HD13        0.9620    3.9390   -4.1590 hc        1 2ZF      0.030200
     59 HD21       -0.3470    3.8300   -0.8920 hc        1 2ZF      0.030200
     60 HD22        0.2090    4.8070   -2.0310 hc        1 2ZF      0.030200
     61 HD23        1.2310    3.9950   -1.1040 hc        1 2ZF      0.030200
     62 H14        -2.7350    0.2550   -2.7880 hn        1 2ZF      0.322500
     63 HA2        -1.5680   -1.1740   -4.8790 h1        1 2ZF      0.101700
     64 HB22       -4.2640   -1.5860   -4.1500 hc        1 2ZF      0.067200
     65 HB1        -3.1170   -2.3890   -3.3810 hc        1 2ZF      0.067200
     66 HG1        -2.3870   -3.3100   -5.4150 h2        1 2ZF      0.152700
@<TRIPOS>BOND
     1    1    2 2   
     2    2    8 2   
     3    3    4 1   
     4    4    5 1   
     5    4    6 1   
     6    4    7 1   
     7    5   36 1   
     8    5   37 1   
     9    5   38 1   
    10    6   39 1   
    11    6   40 1   
    12    6   41 1   
    13    7   42 1   
    14    7   43 1   
    15    7   44 1   
    16    8    9 1   
    17    8   45 1   
    18    9   10 1   
    19    9   12 1   
    20    9   46 1   
    21   10   11 2   
    22   10   17 1   
    23   12   13 1   
    24   12   47 1   
    25   12   48 1   
    26   13   14 1   
    27   13   49 1   
    28   13   50 1   
    29   14   15 1   
    30   14   16 1   
    31   17   18 1   
    32   17   51 1   
    33   18   19 1   
    34   18   21 1   
    35   18   52 1   
    36   19   20 2   
    37   19   25 1   
    38   21   22 1   
    39   21   53 1   
    40   21   54 1   
    41   22   23 1   
    42   22   24 1   
    43   22   55 1   
    44   23   56 1   
    45   23   57 1   
    46   23   58 1   
    47   24   59 1   
    48   24   60 1   
    49   24   61 1   
    50   25   26 1   
    51   25   62 1   
    52   26   27 1   
    53   26   29 1   
    54   26   63 1   
    55   27   28 2   
    56   27   33 1   
    57   29   30 1   
    58   29   64 1   
    59   29   65 1   
    60   30   31 1   
    61   30   32 1   
    62   30   66 1   
    63   33   34 1   
    64   33   35 1   
@<TRIPOS>SUBSTRUCTURE
     1 2ZF         1 TEMP              0 ****  ****    0 ROOT
