@<TRIPOS>MOLECULE
2ZL
   44    45     1     0     0
SMALL
bcc


@<TRIPOS>ATOM
      1 C1          0.5770    0.6860    0.9280 c         1 2ZL      0.573100
      2 C6          3.0070    0.7890    1.3830 c3        1 2ZL     -0.130100
      3 C13         4.0930   -1.3420   -2.3910 ca        1 2ZL     -0.117000
      4 C14         5.0190   -0.8730   -3.3230 ca        1 2ZL     -0.132500
      5 C2          1.9670    0.3110    0.3650 c3        1 2ZL      0.185500
      6 N3          0.1800    2.0480    0.7460 n         1 2ZL     -0.351400
      7 O4         -0.2220   -0.1310    1.4110 o         1 2ZL     -0.569100
      8 O5         -0.8100    2.4530    1.5460 oh        1 2ZL     -0.435100
      9 N7          2.0700   -1.0790   -0.0090 n3        1 2ZL     -0.789500
     10 S8          2.5210   -2.3140    0.9820 sy        1 2ZL      1.516200
     11 O9          3.6720   -2.9310    0.4400 o         1 2ZL     -0.654300
     12 O10         2.6390   -1.8640    2.3110 o         1 2ZL     -0.654300
     13 C11         1.7810   -1.3530   -1.4000 c3        1 2ZL      0.268100
     14 C12         2.7940   -0.8230   -2.3750 ca        1 2ZL     -0.124300
     15 C15         4.6520    0.1130   -4.2390 ca        1 2ZL     -0.122000
     16 C16         3.3580    0.6340   -4.2220 ca        1 2ZL     -0.132500
     17 C17         2.4310    0.1700   -3.2900 ca        1 2ZL     -0.117000
     18 C18         1.2480   -3.4080    0.8610 ca        1 2ZL     -0.403500
     19 C19         0.0540   -3.2000    1.5590 ca        1 2ZL      0.025000
     20 C20        -0.9910   -4.1250    1.5210 ca        1 2ZL     -0.137300
     21 C21        -0.8220   -5.2990    0.7520 ca        1 2ZL      0.187900
     22 C22         0.3760   -5.5240    0.0440 ca        1 2ZL     -0.196000
     23 C23         1.3910   -4.5820    0.1050 ca        1 2ZL     -0.005000
     24 F24        -1.8090   -6.2200    0.6910 f         1 2ZL     -0.129900
     25 C25        -2.2500   -3.8820    2.2600 c3        1 2ZL     -0.052800
     26 H1          4.0310    0.4570    1.0830 hc        1 2ZL      0.066700
     27 H2          2.7920    0.3960    2.4080 hc        1 2ZL      0.066700
     28 H3          2.9980    1.9050    1.4130 hc        1 2ZL      0.066700
     29 H5          6.0390   -1.2840   -3.3340 ha        1 2ZL      0.135000
     30 H6          2.1210    0.9200   -0.5840 h1        1 2ZL      0.087700
     31 H7          0.9500    2.6980    0.8620 hn        1 2ZL      0.299500
     32 H8         -1.6180    2.0090    1.2180 ho        1 2ZL      0.435000
     33 H9          1.7270   -2.4770   -1.5250 h1        1 2ZL      0.058200
     34 H10         0.7640   -0.9340   -1.6550 h1        1 2ZL      0.058200
     35 H11         5.3830    0.4800   -4.9750 ha        1 2ZL      0.133000
     36 H12         3.0680    1.4110   -4.9440 ha        1 2ZL      0.135000
     37 H13         1.4110    0.5830   -3.2800 ha        1 2ZL      0.148500
     38 H14        -0.0690   -2.2760    2.1570 ha        1 2ZL      0.178000
     39 H15         0.4930   -6.4450   -0.5440 ha        1 2ZL      0.157000
     40 H16         2.3380   -4.7620   -0.4370 ha        1 2ZL      0.163000
     41 H17        -2.5860   -4.8170    2.7750 hc        1 2ZL      0.054367
     42 H18        -2.1190   -3.0770    3.0240 hc        1 2ZL      0.054367
     43 H19        -3.0550   -3.5690    1.5490 hc        1 2ZL      0.054367
     44 H4          4.3830   -2.1190   -1.6620 ha        1 2ZL      0.148500
@<TRIPOS>BOND
     1    1    5 1   
     2    1    6 1   
     3    1    7 2   
     4    2    5 1   
     5    2   26 1   
     6    2   27 1   
     7    2   28 1   
     8    3    4 ar  
     9    3   14 ar  
    10    3   44 1   
    11    4   15 ar  
    12    4   29 1   
    13    5    9 1   
    14    5   30 1   
    15    6    8 1   
    16    6   31 1   
    17    8   32 1   
    18    9   10 1   
    19    9   13 1   
    20   10   11 2   
    21   10   12 2   
    22   10   18 1   
    23   13   14 1   
    24   13   33 1   
    25   13   34 1   
    26   14   17 ar  
    27   15   16 ar  
    28   15   35 1   
    29   16   17 ar  
    30   16   36 1   
    31   17   37 1   
    32   18   19 ar  
    33   18   23 ar  
    34   19   20 ar  
    35   19   38 1   
    36   20   21 ar  
    37   20   25 1   
    38   21   22 ar  
    39   21   24 1   
    40   22   23 ar  
    41   22   39 1   
    42   23   40 1   
    43   25   41 1   
    44   25   42 1   
    45   25   43 1   
@<TRIPOS>SUBSTRUCTURE
     1 2ZL         1 TEMP              0 ****  ****    0 ROOT
