@<TRIPOS>MOLECULE
2ZL
   46    46     1     0     0
SMALL
bcc


@<TRIPOS>ATOM
      1 C1        177.2970  725.9710 -122.7890 c         1 2ZL      0.527100
      2 C6        179.4810  727.0420 -123.0980 c3        1 2ZL     -0.130100
      3 C13       178.2960  730.1460 -126.0580 ca        1 2ZL     -0.120000
      4 C14       178.7630  731.4520 -125.9220 ca        1 2ZL     -0.118000
      5 C2        178.0030  727.1550 -123.4770 c3        1 2ZL      0.136500
      6 N3        176.8590  724.8040 -123.6900 ny        1 2ZL     -0.456300
      7 O4        177.0430  725.8260 -121.6090 o         1 2ZL     -0.410100
      8 O5        176.4860  723.6800 -123.0390 oh        1 2ZL     -0.364300
      9 N7        177.7230  727.1890 -124.8930 n7        1 2ZL     -0.870200
     10 S8       -299.3080-1246.5210  214.1260 s4        1 2ZL      1.663300
     11 O9       -298.9070-1245.7590  215.1660 o         1 2ZL     -0.392400
     12 O10      -299.8610-1247.7430  214.2820 o         1 2ZL     -0.392400
     13 C11       176.8270  728.2500 -125.3280 c3        1 2ZL      0.206100
     14 C12       177.3440  729.6460 -125.1620 ca        1 2ZL     -0.164300
     15 C15       178.2820  732.2640 -124.8940 ca        1 2ZL     -0.101000
     16 C16       177.3310  731.7680 -124.0010 ca        1 2ZL     -0.118000
     17 C17       176.8630  730.4610 -124.1330 ca        1 2ZL     -0.120000
     18 C18      -299.1280-1245.9740  212.7040 ca        1 2ZL     -0.666500
     19 C19      -299.5300-1246.7260  211.5600 ca        1 2ZL      0.048000
     20 C20      -299.3800-1246.2590  210.2700 ca        1 2ZL     -0.123300
     21 C21      -298.7980-1244.9700  210.0760 ca        1 2ZL      0.314900
     22 C22      -298.3870-1244.1960  211.1920 ca        1 2ZL     -0.195000
     23 C23      -298.5510-1244.6900  212.4640 ca        1 2ZL      0.062000
     24 F24      -298.6370-1244.4860  208.8420 f         1 2ZL     -0.058900
     25 C25      -299.8050-1247.0590  209.0980 c3        1 2ZL     -0.076800
     26 H1        179.9690  726.1680 -123.5930 hc        1 2ZL      0.080700
     27 H2        180.0110  727.9750 -123.4170 hc        1 2ZL      0.080700
     28 H3        179.5850  726.9420 -121.9900 hc        1 2ZL      0.080700
     29 H6        177.5640  728.0660 -122.9480 h1        1 2ZL      0.131700
     30 H7        176.0750  725.1170 -124.2960 hn        1 2ZL      0.488300
     31 H8        176.1830  723.9140 -122.1270 ho        1 2ZL      0.483000
     32 H9        175.8540  728.1370 -124.7700 h1        1 2ZL      0.072700
     33 H10       176.6230  728.0580 -126.4230 h1        1 2ZL      0.072700
     34 H11       178.6480  733.2980 -124.7910 ha        1 2ZL      0.153000
     35 H12       176.9440  732.4110 -123.1950 ha        1 2ZL      0.150500
     36 H13       176.0990  730.0830 -123.4370 ha        1 2ZL      0.130500
     37 H14      -299.9820-1247.7280  211.7180 ha        1 2ZL      0.184000
     38 H15      -297.9390-1243.2000  211.0210 ha        1 2ZL      0.203000
     39 H16      -298.2270-1244.0790  213.3310 ha        1 2ZL      0.185000
     40 H17      -300.2370-1248.0420  209.4060 hc        1 2ZL      0.082033
     41 H18      -300.5770-1246.4980  208.5100 hc        1 2ZL      0.082033
     42 H19      -298.9300-1247.2480  208.4240 hc        1 2ZL      0.082033
     43 H4        178.6640  729.5140 -126.8800 ha        1 2ZL      0.130500
     44 H32       177.6530  724.5300 -124.3030 hn        1 2ZL      0.488300
     45 H71       178.5740  727.1950 -125.4280 hn        1 2ZL      0.406800
     46 H5        179.5070  731.8460 -126.6330 ha        1 2ZL      0.150500
@<TRIPOS>BOND
     1    1    5 1   
     2    1    6 1   
     3    1    7 2   
     4    2    5 1   
     5    2   26 1   
     6    2   27 1   
     7    2   28 1   
     8    3    4 ar  
     9    3   14 ar  
    10    3   43 1   
    11    4   15 ar  
    12    4   46 1   
    13    5    9 1   
    14    5   29 1   
    15    6    8 1   
    16    6   30 1   
    17    6   44 1   
    18    8   31 1   
    19    9   13 1   
    20    9   45 1   
    21   10   11 1   
    22   10   12 1   
    23   10   18 1   
    24   13   14 1   
    25   13   32 1   
    26   13   33 1   
    27   14   17 ar  
    28   15   16 ar  
    29   15   34 1   
    30   16   17 ar  
    31   16   35 1   
    32   17   36 1   
    33   18   19 ar  
    34   18   23 ar  
    35   19   20 ar  
    36   19   37 1   
    37   20   21 ar  
    38   20   25 1   
    39   21   22 ar  
    40   21   24 1   
    41   22   23 ar  
    42   22   38 1   
    43   23   39 1   
    44   25   40 1   
    45   25   41 1   
    46   25   42 1   
@<TRIPOS>SUBSTRUCTURE
     1 2ZL         1 TEMP              0 ****  ****    0 ROOT
