@<TRIPOS>MOLECULE
2ZL
   46    46     1     0     0
SMALL
bcc


@<TRIPOS>ATOM
      1 C1        208.4750  684.0250 -134.4240 c         1 2ZL      0.527100
      2 C6        209.5530  686.1300 -133.7740 c3        1 2ZL     -0.130100
      3 C13       207.0340  687.1110 -130.2300 ca        1 2ZL     -0.120000
      4 C14       207.6310  687.5800 -129.0610 ca        1 2ZL     -0.118000
      5 C2        208.4890  685.1190 -133.3390 c3        1 2ZL      0.136500
      6 N3        207.2750  684.0140 -135.3850 n4        1 2ZL     -0.456300
      7 O4        209.3040  683.1600 -134.6330 o         1 2ZL     -0.410100
      8 O5        207.4120  683.2230 -136.4720 oh        1 2ZL     -0.364300
      9 N7        207.1690  685.6600 -133.1140 n3        1 2ZL     -0.870200
     10 S8       -350.2180-1175.7380  225.3020 s4        1 2ZL      1.663300
     11 O9       -349.6190-1176.3430  226.3500 o         1 2ZL     -0.392400
     12 O10      -350.7110-1176.4200  224.2450 o         1 2ZL     -0.392400
     13 C11       206.5390  685.2740 -131.8610 c3        1 2ZL      0.206100
     14 C12       207.2040  685.7780 -130.6170 ca        1 2ZL     -0.164300
     15 C15       208.3980  686.7200 -128.2740 ca        1 2ZL     -0.101000
     16 C16       208.5660  685.3880 -128.6560 ca        1 2ZL     -0.118000
     17 C17       207.9720  684.9170 -129.8270 ca        1 2ZL     -0.120000
     18 C18      -350.3430-1174.2090  225.3120 ca        1 2ZL     -0.666500
     19 C19      -350.9650-1173.5060  224.2370 ca        1 2ZL      0.048000
     20 C20      -351.0920-1172.1320  224.2190 ca        1 2ZL     -0.123300
     21 C21      -350.5790-1171.3860  225.3240 ca        1 2ZL      0.314900
     22 C22      -349.9560-1172.0550  226.4090 ca        1 2ZL     -0.195000
     23 C23      -349.8450-1173.4250  226.3960 ca        1 2ZL      0.062000
     24 F24      -350.6840-1170.0550  225.3410 f         1 2ZL     -0.058900
     25 C25      -351.7400-1171.4240  223.0920 c3        1 2ZL     -0.076800
     26 H1        209.7370  686.8480 -132.9350 hc        1 2ZL      0.080700
     27 H2        210.5120  685.6020 -133.9990 hc        1 2ZL      0.080700
     28 H3        209.2320  686.7070 -134.6730 hc        1 2ZL      0.080700
     29 H6        208.8710  684.5690 -132.4150 h1        1 2ZL      0.131700
     30 H7        206.4240  683.7240 -134.8650 hn        1 2ZL      0.488300
     31 H8        208.0640  682.5050 -136.2750 ho        1 2ZL      0.483000
     32 H9        206.4810  684.1480 -131.8310 h1        1 2ZL      0.072700
     33 H10       205.4830  685.6740 -131.9060 h1        1 2ZL      0.072700
     34 H11       208.8640  687.0890 -127.3470 ha        1 2ZL      0.153000
     35 H12       209.1630  684.7070 -128.0310 ha        1 2ZL      0.150500
     36 H13       208.0930  683.8620 -130.1120 ha        1 2ZL      0.130500
     37 H14      -351.3610-1174.0910  223.3810 ha        1 2ZL      0.184000
     38 H15      -349.5650-1171.4600  227.2550 ha        1 2ZL      0.203000
     39 H16      -349.3560-1173.9390  227.2480 ha        1 2ZL      0.185000
     40 H17      -352.6210-1170.8380  223.4620 hc        1 2ZL      0.082033
     41 H18      -351.0200-1170.7040  222.6240 hc        1 2ZL      0.082033
     42 H19      -352.0920-1172.1370  222.3060 hc        1 2ZL      0.082033
     43 H4        206.4160  687.7880 -130.8390 ha        1 2ZL      0.130500
     44 H32       207.1200  684.9760 -135.7490 hn        1 2ZL      0.488300
     45 H71       207.1660  686.6590 -133.2250 hn        1 2ZL      0.406800
     46 H5        207.4900  688.6280 -128.7540 ha        1 2ZL      0.150500
@<TRIPOS>BOND
     1    1    5 1   
     2    1    6 1   
     3    1    7 2   
     4    2    5 1   
     5    2   26 1   
     6    2   27 1   
     7    2   28 1   
     8    3    4 ar  
     9    3   14 ar  
    10    3   43 1   
    11    4   15 ar  
    12    4   46 1   
    13    5    9 1   
    14    5   29 1   
    15    6    8 1   
    16    6   30 1   
    17    6   44 1   
    18    8   31 1   
    19    9   13 1   
    20    9   45 1   
    21   10   11 1   
    22   10   12 1   
    23   10   18 1   
    24   13   14 1   
    25   13   32 1   
    26   13   33 1   
    27   14   17 ar  
    28   15   16 ar  
    29   15   34 1   
    30   16   17 ar  
    31   16   35 1   
    32   17   36 1   
    33   18   19 ar  
    34   18   23 ar  
    35   19   20 ar  
    36   19   37 1   
    37   20   21 ar  
    38   20   25 1   
    39   21   22 ar  
    40   21   24 1   
    41   22   23 ar  
    42   22   38 1   
    43   23   39 1   
    44   25   40 1   
    45   25   41 1   
    46   25   42 1   
@<TRIPOS>SUBSTRUCTURE
     1 2ZL         1 TEMP              0 ****  ****    0 ROOT
