@<TRIPOS>MOLECULE
2ZM
   17    18     1     0     0
SMALL
bcc


@<TRIPOS>ATOM
      1 O1          0.0210   -0.0170    0.0060 o         1 2ZM     -0.211500
      2 N2          1.2240   -0.0130    0.0110 no        1 2ZM      0.317200
      3 O3          1.8560   -0.0100    1.0340 o         1 2ZM     -0.211500
      4 C4          1.9500   -0.0130   -1.2850 ca        1 2ZM     -0.204200
      5 C5          3.3670   -0.0100   -1.2660 ca        1 2ZM     -0.058000
      6 C6          4.0950   -0.0090   -2.4420 ca        1 2ZM     -0.143000
      7 C7          3.3850   -0.0130   -3.6510 ca        1 2ZM     -0.039200
      8 N8          3.7840   -0.0130   -4.9860 na        1 2ZM     -0.285300
      9 C9          2.6000   -0.0170   -5.7550 cc        1 2ZM      0.426700
     10 N10         1.4850   -0.0190   -5.0150 nd        1 2ZM     -0.544100
     11 C11         1.9280   -0.0160   -3.6730 ca        1 2ZM      0.045400
     12 C12         1.2120   -0.0170   -2.4740 ca        1 2ZM      0.006000
     13 H1          3.8940   -0.0070   -0.2950 ha        1 2ZM      0.173000
     14 H2          5.1930   -0.0070   -2.4250 ha        1 2ZM      0.151000
     15 H3          4.7100   -0.0110   -5.3200 hn        1 2ZM      0.313700
     16 H4          2.6310   -0.0180   -6.8530 h5        1 2ZM      0.077800
     17 H6          0.1080   -0.0190   -2.4700 ha        1 2ZM      0.187000
@<TRIPOS>BOND
     1    1    2 1   
     2    2    3 1   
     3    2    4 1   
     4    4    5 ar  
     5    4   12 ar  
     6    5    6 ar  
     7    5   13 1   
     8    6    7 ar  
     9    6   14 1   
    10    7    8 1   
    11    7   11 ar  
    12    8    9 1   
    13    8   15 1   
    14    9   10 2   
    15    9   16 1   
    16   10   11 1   
    17   11   12 ar  
    18   12   17 1   
@<TRIPOS>SUBSTRUCTURE
     1 2ZM         1 TEMP              0 ****  ****    0 ROOT
