@<TRIPOS>MOLECULE
2ZO
   25    24     1     0     0
SMALL
bcc


@<TRIPOS>ATOM
      1 O           1.1290   -0.7560   -0.8020 o         1 2ZO     -0.507100
      2 C4          1.1900    0.1730    0.0010 c         1 2ZO      0.566900
      3 C3          2.0890    0.1440    1.2070 c3        1 2ZO     -0.209400
      4 C2          2.8720   -1.1520    1.2760 c3        1 2ZO     -0.100400
      5 C1          3.7670   -1.1450    2.5060 c3        1 2ZO      0.115800
      6 N           4.6150   -2.3810    2.6860 n4        1 2ZO     -0.603800
      7 C7          5.5530   -2.5450    1.5360 c3        1 2ZO      0.087767
      8 C6          5.4100   -2.2250    3.9440 c3        1 2ZO      0.087767
      9 C5          3.7540   -3.5950    2.8020 c3        1 2ZO      0.087767
     10 H1          0.5850    1.1000   -0.1070 h4        1 2ZO      0.032200
     11 H2          1.4540    0.2710    2.1240 hc        1 2ZO      0.081200
     12 H3          2.7850    1.0230    1.1490 hc        1 2ZO      0.081200
     13 H4          3.4760   -1.2590    0.3350 hc        1 2ZO      0.078700
     14 H5          2.1480   -2.0090    1.3080 hc        1 2ZO      0.078700
     15 H6          3.1310   -1.0430    3.4320 hx        1 2ZO      0.097700
     16 H7          4.4720   -0.2660    2.4540 hx        1 2ZO      0.097700
     17 H8          4.9680   -2.7400    0.5980 hx        1 2ZO      0.103033
     18 H9          6.1600   -1.6090    1.4150 hx        1 2ZO      0.103033
     19 H10         6.2340   -3.4150    1.7360 hx        1 2ZO      0.103033
     20 H11         4.7110   -2.1150    4.8150 hx        1 2ZO      0.103033
     21 H12         6.0530   -3.1320    4.0930 hx        1 2ZO      0.103033
     22 H13         6.0600   -1.3140    3.8630 hx        1 2ZO      0.103033
     23 H14         4.3970   -4.4840    3.0420 hx        1 2ZO      0.103033
     24 H15         3.0020   -3.4410    3.6200 hx        1 2ZO      0.103033
     25 H16         3.2220   -3.7740    1.8300 hx        1 2ZO      0.103033
@<TRIPOS>BOND
     1    1    2 2   
     2    2    3 1   
     3    2   10 1   
     4    3    4 1   
     5    3   11 1   
     6    3   12 1   
     7    4    5 1   
     8    4   13 1   
     9    4   14 1   
    10    5    6 1   
    11    5   15 1   
    12    5   16 1   
    13    6    7 1   
    14    6    8 1   
    15    6    9 1   
    16    7   17 1   
    17    7   18 1   
    18    7   19 1   
    19    8   20 1   
    20    8   21 1   
    21    8   22 1   
    22    9   23 1   
    23    9   24 1   
    24    9   25 1   
@<TRIPOS>SUBSTRUCTURE
     1 2ZO         1 TEMP              0 ****  ****    0 ROOT
