@<TRIPOS>MOLECULE
2ZO
   25    24     1     0     0
SMALL
bcc


@<TRIPOS>ATOM
      1 O           1.1130   -0.7680   -0.7910 o         1 2ZO     -0.507100
      2 C4          1.1880    0.1700    0.0000 c         1 2ZO      0.566900
      3 C3          2.0970    0.1460    1.2000 c3        1 2ZO     -0.209400
      4 C2          2.8670   -1.1560    1.2800 c3        1 2ZO     -0.100400
      5 C1          3.7700   -1.1440    2.5030 c3        1 2ZO      0.115800
      6 N           4.6150   -2.3820    2.6870 n4        1 2ZO     -0.603800
      7 C7          5.5580   -2.5460    1.5420 c3        1 2ZO      0.087767
      8 C6          5.4030   -2.2280    3.9490 c3        1 2ZO      0.087767
      9 C5          3.7510   -3.5940    2.7970 c3        1 2ZO      0.087767
     10 H1          0.5920    1.1010   -0.1140 h4        1 2ZO      0.032200
     11 H2          1.4700    0.2920    2.1200 hc        1 2ZO      0.081200
     12 H3          2.8000    1.0190    1.1270 hc        1 2ZO      0.081200
     13 H4          3.4630   -1.2800    0.3360 hc        1 2ZO      0.078700
     14 H5          2.1350   -2.0060    1.3270 hc        1 2ZO      0.078700
     15 H6          4.4780   -0.2680    2.4410 hx        1 2ZO      0.097700
     16 H7          3.1400   -1.0330    3.4320 hx        1 2ZO      0.097700
     17 H8          6.2330   -3.4210    1.7400 hx        1 2ZO      0.103033
     18 H9          6.1730   -1.6140    1.4290 hx        1 2ZO      0.103033
     19 H10         4.9780   -2.7320    0.5990 hx        1 2ZO      0.103033
     20 H11         6.0510   -1.3150    3.8750 hx        1 2ZO      0.103033
     21 H12         6.0480   -3.1340    4.0970 hx        1 2ZO      0.103033
     22 H13         4.7000   -2.1230    4.8170 hx        1 2ZO      0.103033
     23 H14         2.9910   -3.4370    3.6080 hx        1 2ZO      0.103033
     24 H15         3.2280   -3.7740    1.8190 hx        1 2ZO      0.103033
     25 H16         4.3900   -4.4830    3.0450 hx        1 2ZO      0.103033
@<TRIPOS>BOND
     1    1    2 2   
     2    2    3 1   
     3    2   10 1   
     4    3    4 1   
     5    3   11 1   
     6    3   12 1   
     7    4    5 1   
     8    4   13 1   
     9    4   14 1   
    10    5    6 1   
    11    5   15 1   
    12    5   16 1   
    13    6    7 1   
    14    6    8 1   
    15    6    9 1   
    16    7   17 1   
    17    7   18 1   
    18    7   19 1   
    19    8   20 1   
    20    8   21 1   
    21    8   22 1   
    22    9   23 1   
    23    9   24 1   
    24    9   25 1   
@<TRIPOS>SUBSTRUCTURE
     1 2ZO         1 TEMP              0 ****  ****    0 ROOT
