@<TRIPOS>MOLECULE
2ZO
   25    24     1     0     0
SMALL
bcc


@<TRIPOS>ATOM
      1 O           1.2130   -0.7270   -0.8680 o         1 2ZO     -0.507100
      2 C4          1.1710    0.1440   -0.0020 c         1 2ZO      0.566900
      3 C3          2.0120    0.0880    1.2450 c3        1 2ZO     -0.209400
      4 C2          2.8810   -1.1530    1.2660 c3        1 2ZO     -0.100400
      5 C1          3.7140   -1.1750    2.5370 c3        1 2ZO      0.115800
      6 N           4.6290   -2.3670    2.6830 n4        1 2ZO     -0.603800
      7 C7          5.6120   -2.4130    1.5610 c3        1 2ZO      0.087767
      8 C6          5.3700   -2.2340    3.9750 c3        1 2ZO      0.087767
      9 C5          3.8390   -3.6330    2.7030 c3        1 2ZO      0.087767
     10 H1          0.5090    1.0340   -0.0780 h4        1 2ZO      0.032200
     11 H2          1.3260    0.1060    2.1340 hc        1 2ZO      0.081700
     12 H3          2.6450    1.0140    1.2850 hc        1 2ZO      0.081700
     13 H4          3.5350   -1.1510    0.3530 hc        1 2ZO      0.078700
     14 H5          2.2190   -2.0580    1.2000 hc        1 2ZO      0.078700
     15 H6          3.0300   -1.1720    3.4350 hx        1 2ZO      0.097700
     16 H7          4.3640   -0.2540    2.5770 hx        1 2ZO      0.097700
     17 H8          5.0720   -2.5970    0.5940 hx        1 2ZO      0.103033
     18 H9          6.1600   -1.4350    1.5060 hx        1 2ZO      0.103033
     19 H10         6.3430   -3.2450    1.7420 hx        1 2ZO      0.103033
     20 H11         4.6370   -2.2060    4.8240 hx        1 2ZO      0.103033
     21 H12         6.0570   -3.1130    4.1020 hx        1 2ZO      0.103033
     22 H13         5.9720   -1.2870    3.9640 hx        1 2ZO      0.103033
     23 H14         4.5270   -4.4960    2.9120 hx        1 2ZO      0.103033
     24 H15         3.0570   -3.5720    3.5060 hx        1 2ZO      0.103033
     25 H16         3.3450   -3.7860    1.7060 hx        1 2ZO      0.103033
@<TRIPOS>BOND
     1    1    2 2   
     2    2    3 1   
     3    2   10 1   
     4    3    4 1   
     5    3   11 1   
     6    3   12 1   
     7    4    5 1   
     8    4   13 1   
     9    4   14 1   
    10    5    6 1   
    11    5   15 1   
    12    5   16 1   
    13    6    7 1   
    14    6    8 1   
    15    6    9 1   
    16    7   17 1   
    17    7   18 1   
    18    7   19 1   
    19    8   20 1   
    20    8   21 1   
    21    8   22 1   
    22    9   23 1   
    23    9   24 1   
    24    9   25 1   
@<TRIPOS>SUBSTRUCTURE
     1 2ZO         1 TEMP              0 ****  ****    0 ROOT
