@<TRIPOS>MOLECULE
2ZQ
   19    20     1     0     0
SMALL
bcc


@<TRIPOS>ATOM
      1 C1         -0.0070   -0.0400   -0.0300 ca        1 2ZQ      0.429600
      2 C2          1.4200    0.0240   -0.0030 ca        1 2ZQ     -0.152300
      3 C3         -0.6960    0.0510    1.2290 ca        1 2ZQ     -0.199500
      4 C4          2.1050    0.1510    1.2310 ca        1 2ZQ     -0.075000
      5 C5         -0.0020    0.1490    2.4210 ca        1 2ZQ     -0.059000
      6 C6          1.4090    0.2040    2.4150 ca        1 2ZQ     -0.139000
      7 C7         -0.0220   -0.2720   -2.3330 ca        1 2ZQ      0.432200
      8 C8          1.4060   -0.1960   -2.4090 ca        1 2ZQ     -0.242300
      9 N9         -0.7110   -0.2010   -1.2080 nb        1 2ZQ     -0.645000
     10 C10         2.1160   -0.0530   -1.2450 ca        1 2ZQ     -0.075000
     11 N11        -2.1900    0.0350    1.2620 no        1 2ZQ      0.319200
     12 O12        -2.8010    0.8460    0.6280 o         1 2ZQ     -0.192500
     13 O13        -2.7290   -0.7780    1.9650 o         1 2ZQ     -0.192500
     14 H1          3.2050    0.2010    1.2220 ha        1 2ZQ      0.145000
     15 H2         -0.5370    0.1860    3.3850 ha        1 2ZQ      0.165000
     16 H3          1.9380    0.2920    3.3760 ha        1 2ZQ      0.151000
     17 H4         -0.6160   -0.4000   -3.2580 h4        1 2ZQ      0.035100
     18 H5          1.8980   -0.2570   -3.3890 ha        1 2ZQ      0.152000
     19 H6          3.2150    0.0030   -1.2430 ha        1 2ZQ      0.145000
@<TRIPOS>BOND
     1    1    2 ar  
     2    1    3 ar  
     3    1    9 ar  
     4    2    4 ar  
     5    2   10 ar  
     6    3    5 ar  
     7    3   11 1   
     8    4    6 ar  
     9    4   14 1   
    10    5    6 ar  
    11    5   15 1   
    12    6   16 1   
    13    7    8 ar  
    14    7    9 ar  
    15    7   17 1   
    16    8   10 ar  
    17    8   18 1   
    18   10   19 1   
    19   11   12 1   
    20   11   13 1   
@<TRIPOS>SUBSTRUCTURE
     1 2ZQ         1 TEMP              0 ****  ****    0 ROOT
