@<TRIPOS>MOLECULE
2ZQ
   19    20     1     0     0
SMALL
bcc


@<TRIPOS>ATOM
      1 C1         -0.0080   -0.0190   -0.0310 ca        1 2ZQ      0.429600
      2 C2          1.4200    0.0170   -0.0030 ca        1 2ZQ     -0.152300
      3 C3         -0.6940    0.0180    1.2330 ca        1 2ZQ     -0.199500
      4 C4          2.1080    0.0650    1.2350 ca        1 2ZQ     -0.075000
      5 C5          0.0030    0.0400    2.4260 ca        1 2ZQ     -0.059000
      6 C6          1.4150    0.0690    2.4210 ca        1 2ZQ     -0.139000
      7 C7         -0.0290   -0.1280   -2.3430 ca        1 2ZQ      0.432200
      8 C8          1.4000   -0.0750   -2.4180 ca        1 2ZQ     -0.242300
      9 N9         -0.7160   -0.1040   -1.2150 nb        1 2ZQ     -0.645000
     10 C10         2.1130   -0.0070   -1.2490 ca        1 2ZQ     -0.075000
     11 N11        -2.1880    0.0280    1.2670 no        1 2ZQ      0.319200
     12 O12        -2.7840    0.8830    0.6790 o         1 2ZQ     -0.192500
     13 O13        -2.7420   -0.8110    1.9270 o         1 2ZQ     -0.192500
     14 H1          3.2100    0.0950    1.2260 ha        1 2ZQ      0.145000
     15 H2         -0.5300    0.0360    3.3930 ha        1 2ZQ      0.165000
     16 H3          1.9460    0.0960    3.3850 ha        1 2ZQ      0.151000
     17 H4         -0.6260   -0.1950   -3.2720 h4        1 2ZQ      0.035100
     18 H5          1.8900   -0.0930   -3.4000 ha        1 2ZQ      0.152000
     19 H6          3.2130    0.0280   -1.2460 ha        1 2ZQ      0.145000
@<TRIPOS>BOND
     1    1    2 ar  
     2    1    3 ar  
     3    1    9 ar  
     4    2    4 ar  
     5    2   10 ar  
     6    3    5 ar  
     7    3   11 1   
     8    4    6 ar  
     9    4   14 1   
    10    5    6 ar  
    11    5   15 1   
    12    6   16 1   
    13    7    8 ar  
    14    7    9 ar  
    15    7   17 1   
    16    8   10 ar  
    17    8   18 1   
    18   10   19 1   
    19   11   12 1   
    20   11   13 1   
@<TRIPOS>SUBSTRUCTURE
     1 2ZQ         1 TEMP              0 ****  ****    0 ROOT
