@<TRIPOS>MOLECULE
2ZS
   91    93     1     0     0
SMALL
bcc


@<TRIPOS>ATOM
      1 O1         -6.1360    3.2490    0.5580 os        1 2ZS     -0.410600
      2 C2         -5.4390    2.7570    1.7000 c3        1 2ZS      0.094400
      3 C3         -5.4400    1.2240    1.7430 c3        1 2ZS      0.033000
      4 N4         -5.0020    0.5950    0.5030 n         1 2ZS     -0.417800
      5 C5         -5.6380    1.1890   -0.6590 c3        1 2ZS      0.033000
      6 C6         -5.6180    2.7260   -0.6590 c3        1 2ZS      0.094400
      7 C          -3.6340    0.2040    0.4540 c         1 2ZS      0.740100
      8 O          -2.9070    0.2830    1.4780 o         1 2ZS     -0.654100
      9 N          -3.0920   -0.3210   -0.7320 n         1 2ZS     -0.536900
     10 CA         -1.8370   -1.0360   -0.6600 c3        1 2ZS      0.038700
     11 C1         -0.6430   -0.0900   -0.9520 c         1 2ZS      0.658100
     12 O2          0.0980   -0.2700   -1.9420 o         1 2ZS     -0.642100
     13 CB         -1.7570   -2.2140   -1.6470 c3        1 2ZS     -0.048100
     14 CG         -2.8130   -3.2260   -1.3820 ca        1 2ZS     -0.096300
     15 CD1        -3.9500   -3.2930   -2.1950 ca        1 2ZS     -0.128000
     16 CD2        -2.6710   -4.1300   -0.3220 ca        1 2ZS     -0.128000
     17 CE1        -4.9340   -4.2500   -1.9490 ca        1 2ZS     -0.124500
     18 CE2        -3.6560   -5.0850   -0.0780 ca        1 2ZS     -0.124500
     19 CZ         -4.7890   -5.1460   -0.8890 ca        1 2ZS     -0.125000
     20 N1         -0.4140    0.9140   -0.0460 n         1 2ZS     -0.547900
     21 CA1         0.6710    1.8480   -0.1990 c3        1 2ZS      0.048700
     22 CB1         0.4620    3.1590    0.5600 c3        1 2ZS     -0.031300
     23 SG         -0.8950    4.1260   -0.0040 ss        1 2ZS     -0.279200
     24 CS         -0.2850    4.8710   -1.4690 c3        1 2ZS     -0.048000
     25 C4          2.0020    1.2200    0.3070 c         1 2ZS      0.640100
     26 O3          2.4470    1.4820    1.4410 o         1 2ZS     -0.613100
     27 N2          2.6570    0.3920   -0.5770 n         1 2ZS     -0.559900
     28 CA2         3.8160   -0.3770   -0.1980 c3        1 2ZS      0.072700
     29 CB2         3.7120   -1.8700   -0.5470 c3        1 2ZS     -0.089400
     30 CG1         2.4410   -2.5500   -0.0700 c3        1 2ZS     -0.064700
     31 CD11        2.4840   -4.0210   -0.4700 c3        1 2ZS     -0.077400
     32 CD21        2.2550   -2.4210    1.4350 c3        1 2ZS     -0.077400
     33 CE11        1.2440   -4.7560   -0.0070 c3        1 2ZS     -0.075900
     34 CE21        1.0120   -3.1530    1.8970 c3        1 2ZS     -0.075900
     35 CZ1         1.0380   -4.6100    1.4860 c3        1 2ZS     -0.079400
     36 CH          5.1180    0.1540   -0.8710 c3        1 2ZS      0.087100
     37 OH          5.0530    0.1330   -2.2780 oh        1 2ZS     -0.581800
     38 C7          5.4080    1.5580   -0.3770 c         1 2ZS      0.614100
     39 O11         5.0980    2.6100   -0.9410 o         1 2ZS     -0.551000
     40 O21         6.0910    1.5710    0.7970 os        1 2ZS     -0.432900
     41 CM          6.3010    2.8420    1.4600 c3        1 2ZS      0.143100
     42 CM1         5.3560    2.9040    2.6430 c3        1 2ZS     -0.110600
     43 CM2         7.7560    2.8600    1.8870 c3        1 2ZS     -0.110600
     44 H21        -4.3910    3.1570    1.7020 h1        1 2ZS      0.062950
     45 H22        -6.0110    3.1700    2.5720 h1        1 2ZS      0.062950
     46 H31        -4.7940    0.8810    2.5990 h1        1 2ZS      0.073200
     47 H32        -6.4940    0.8630    1.9150 h1        1 2ZS      0.073200
     48 H51        -5.1860    0.8310   -1.6210 h1        1 2ZS      0.073200
     49 H52        -6.7130    0.8460   -0.6330 h1        1 2ZS      0.073200
     50 H61        -6.3100    3.1200   -1.4490 h1        1 2ZS      0.062950
     51 H62        -4.5790    3.1140   -0.8260 h1        1 2ZS      0.062950
     52 H          -3.7210   -0.6530   -1.4310 hn        1 2ZS      0.314500
     53 HA         -1.6860   -1.4440    0.3900 h1        1 2ZS      0.092700
     54 HB2        -1.8240   -1.8300   -2.7010 hc        1 2ZS      0.079200
     55 HB3        -0.7380   -2.6750   -1.5320 hc        1 2ZS      0.079200
     56 HD1        -4.0630   -2.5950   -3.0380 ha        1 2ZS      0.133500
     57 HD2        -1.7740   -4.0860    0.3170 ha        1 2ZS      0.133500
     58 HE1        -5.8240   -4.2990   -2.5930 ha        1 2ZS      0.134500
     59 HE2        -3.5390   -5.7920    0.7570 ha        1 2ZS      0.134500
     60 HZ         -5.5660   -5.9000   -0.6960 ha        1 2ZS      0.135000
     61 H1         -1.0200    1.0250    0.7400 hn        1 2ZS      0.355500
     62 HA1         0.7850    2.0850   -1.3030 h1        1 2ZS      0.084700
     63 HB21        0.2630    2.9550    1.6440 h1        1 2ZS      0.100200
     64 HB31        1.4160    3.7400    0.5010 h1        1 2ZS      0.100200
     65 HCS1       -1.0860    5.5620   -1.8190 h1        1 2ZS      0.066367
     66 HCS2        0.6440    5.4550   -1.2820 h1        1 2ZS      0.066367
     67 HCS3       -0.0790    4.1220   -2.2660 h1        1 2ZS      0.066367
     68 HN1         2.1830    0.1110   -1.4100 hn        1 2ZS      0.340500
     69 HA2         3.9680   -0.2690    0.9210 h1        1 2ZS      0.097700
     70 HB1         3.7930   -1.9860   -1.6620 hc        1 2ZS      0.058200
     71 HB22        4.5990   -2.3810   -0.0870 hc        1 2ZS      0.058200
     72 HG          1.5530   -2.0770   -0.5820 hc        1 2ZS      0.053700
     73 HD11        2.5740   -4.1020   -1.5840 hc        1 2ZS      0.044700
     74 HD12        3.3930   -4.5010   -0.0210 hc        1 2ZS      0.044700
     75 HD21        3.1540   -2.8400    1.9580 hc        1 2ZS      0.044700
     76 HD22        2.1750   -1.3380    1.7160 hc        1 2ZS      0.044700
     77 HE11        0.3470   -4.3540   -0.5490 hc        1 2ZS      0.038200
     78 HE12        1.3350   -5.8420   -0.2700 hc        1 2ZS      0.038200
     79 HE21        0.9280   -3.0770    3.0130 hc        1 2ZS      0.038200
     80 HE22        0.1030   -2.6600    1.4590 hc        1 2ZS      0.038200
     81 HZ1         0.0740   -5.1010    1.7810 hc        1 2ZS      0.039200
     82 HZ2         1.8650   -5.1370    2.0310 hc        1 2ZS      0.039200
     83 HC          5.9720   -0.5320   -0.6070 h1        1 2ZS      0.108700
     84 HH          4.4760    0.8570   -2.5620 ho        1 2ZS      0.424000
     85 HM          6.0910    3.6840    0.7440 h1        1 2ZS      0.077700
     86 HM11        5.6260    2.1290    3.4000 hc        1 2ZS      0.049700
     87 HM12        5.4190    3.9120    3.1160 hc        1 2ZS      0.049700
     88 HM13        4.3050    2.7160    2.3090 hc        1 2ZS      0.049700
     89 HM21        8.4230    2.8370    0.9930 hc        1 2ZS      0.049700
     90 HM22        7.9540    3.7900    2.4700 hc        1 2ZS      0.049700
     91 HM23        7.9860    1.9730    2.5240 hc        1 2ZS      0.049700
@<TRIPOS>BOND
     1    1    2 1   
     2    1    6 1   
     3    2    3 1   
     4    2   44 1   
     5    2   45 1   
     6    3    4 1   
     7    3   46 1   
     8    3   47 1   
     9    4    5 1   
    10    4    7 1   
    11    5    6 1   
    12    5   48 1   
    13    5   49 1   
    14    6   50 1   
    15    6   51 1   
    16    7    8 2   
    17    7    9 1   
    18    9   10 1   
    19    9   52 1   
    20   10   11 1   
    21   10   13 1   
    22   10   53 1   
    23   11   12 2   
    24   11   20 1   
    25   13   14 1   
    26   13   54 1   
    27   13   55 1   
    28   14   15 ar  
    29   14   16 ar  
    30   15   17 ar  
    31   15   56 1   
    32   16   18 ar  
    33   16   57 1   
    34   17   19 ar  
    35   17   58 1   
    36   18   19 ar  
    37   18   59 1   
    38   19   60 1   
    39   20   21 1   
    40   20   61 1   
    41   21   22 1   
    42   21   25 1   
    43   21   62 1   
    44   22   23 1   
    45   22   63 1   
    46   22   64 1   
    47   23   24 1   
    48   24   65 1   
    49   24   66 1   
    50   24   67 1   
    51   25   26 2   
    52   25   27 1   
    53   27   28 1   
    54   27   68 1   
    55   28   29 1   
    56   28   36 1   
    57   28   69 1   
    58   29   30 1   
    59   29   70 1   
    60   29   71 1   
    61   30   31 1   
    62   30   32 1   
    63   30   72 1   
    64   31   33 1   
    65   31   73 1   
    66   31   74 1   
    67   32   34 1   
    68   32   75 1   
    69   32   76 1   
    70   33   35 1   
    71   33   77 1   
    72   33   78 1   
    73   34   35 1   
    74   34   79 1   
    75   34   80 1   
    76   35   81 1   
    77   35   82 1   
    78   36   37 1   
    79   36   38 1   
    80   36   83 1   
    81   37   84 1   
    82   38   39 2   
    83   38   40 1   
    84   40   41 1   
    85   41   42 1   
    86   41   43 1   
    87   41   85 1   
    88   42   86 1   
    89   42   87 1   
    90   42   88 1   
    91   43   89 1   
    92   43   90 1   
    93   43   91 1   
@<TRIPOS>SUBSTRUCTURE
     1 2ZS         1 TEMP              0 ****  ****    0 ROOT
