@<TRIPOS>MOLECULE
2ZS
   91    91     1     0     0
SMALL
bcc


@<TRIPOS>ATOM
      1 O1         -2.7010    1.5400   -7.3690 os        1 2ZS     -0.275000
      2 C2         -1.5660    1.3800   -7.9730 c3        1 2ZS     -0.037000
      3 C3         -0.5080    2.3040   -7.3940 c3        1 2ZS     -0.069000
      4 N4         -0.8880    2.8260   -6.0320 n         1 2ZS     -0.302000
      5 C5         -2.1540    3.5750   -6.3930 c3        1 2ZS     -0.069000
      6 C6         -3.2210    2.6590   -6.9660 c3        1 2ZS     -0.037000
      7 C          -0.2190    2.6540   -4.7270 c2        1 2ZS      0.398000
      8 O           0.7870    2.0140   -4.6520 o         1 2ZS     -0.423000
      9 N          -0.7310    3.3180   -3.5650 n         1 2ZS     -0.370000
     10 CA         -0.0850    3.1620   -2.3290 c3        1 2ZS      0.031000
     11 C1         -0.9210    2.2520   -1.4280 c2        1 2ZS      0.274000
     12 O2         -2.1450    2.3220   -1.4540 o         1 2ZS     -0.391000
     13 CB          0.0790    4.5260   -1.6660 c3        1 2ZS     -0.127000
     14 CG          1.3150    5.2560   -2.2790 c2        1 2ZS     -0.074000
     15 CD1         1.1380    6.4330   -3.0140 c2        1 2ZS     -0.128000
     16 CD2         2.5940    4.8110   -1.9820 c1        1 2ZS     -0.127000
     17 CE1         2.2620    7.1680   -3.4550 c1        1 2ZS     -0.128000
     18 CE2         3.7160    5.5440   -2.4210 c1        1 2ZS     -0.127000
     19 CZ          3.5390    6.7220   -3.1570 c1        1 2ZS     -0.127000
     20 N1         -0.2650    1.2200   -0.6220 n         1 2ZS     -0.360000
     21 CA1        -1.0050    0.0570   -0.1960 c3        1 2ZS      0.023000
     22 CB1        -1.0050   -0.9770   -1.3070 c3        1 2ZS     -0.281000
     23 SG         -2.5520   -0.9010   -2.1900 ss        1 2ZS      0.071000
     24 CS         -2.7240   -2.3430   -3.2000 c3        1 2ZS     -0.340000
     25 C4         -0.3570   -0.5330    1.0470 c2        1 2ZS      0.290000
     26 O3          0.4910    0.0970    1.6480 o         1 2ZS     -0.362000
     27 N2         -0.7570   -1.8550    1.5220 n         1 2ZS     -0.356000
     28 CA2        -0.1790   -2.3950    2.7230 c3        1 2ZS      0.054000
     29 CB2         1.3600   -2.6150    2.5110 c3        1 2ZS     -0.165000
     30 CG1         1.7170   -4.0900    2.8190 c3        1 2ZS     -0.106000
     31 CD11        2.7510   -4.5700    1.8070 c3        1 2ZS     -0.154000
     32 CD21        2.2140   -4.1860    4.2400 c3        1 2ZS     -0.154000
     33 CE11        3.2930   -5.9580    2.1410 c3        1 2ZS     -0.154500
     34 CE21        2.7610   -5.5790    4.5760 c3        1 2ZS     -0.154500
     35 CZ1         3.7910   -6.0560    3.5680 c3        1 2ZS     -0.155000
     36 CH         -0.3960   -1.4520    3.8430 c3        1 2ZS      0.009000
     37 OH         -1.1250   -0.3370    3.3830 oh        1 2ZS     -0.293000
     38 C7         -1.1890   -2.1580    4.9650 c2        1 2ZS      0.264000
     39 O11        -2.0010   -3.0280    4.6860 o         1 2ZS     -0.342000
     40 O21        -0.9790   -1.7820    6.3390 os        1 2ZS     -0.294000
     41 CM         -2.1760   -1.6350    7.0870 c3        1 2ZS      0.039000
     42 CM1        -1.8870   -1.8830    8.5530 c3        1 2ZS     -0.228500
     43 CM2        -2.7200   -0.2100    6.9070 c3        1 2ZS     -0.228500
     44 H21        -1.6780    1.5760   -8.9310 h1        1 2ZS      0.096750
     45 H22        -1.2720    0.4460   -7.8670 h1        1 2ZS      0.096750
     46 H31        -0.3830    3.0600   -7.9980 h1        1 2ZS      0.105250
     47 H32         0.3390    1.8120   -7.3190 h1        1 2ZS      0.105250
     48 H51        -2.5070    4.0070   -5.5880 h1        1 2ZS      0.105250
     49 H52        -1.9390    4.2640   -7.0540 h1        1 2ZS      0.105250
     50 H61        -3.8890    2.4730   -6.2770 h1        1 2ZS      0.096750
     51 H62        -3.6570    3.1060   -7.7270 h1        1 2ZS      0.096750
     52 H          -1.4320    3.9040   -3.6450 hn        1 2ZS      0.234000
     53 HA          0.8020    2.7570   -2.4710 h1        1 2ZS      0.141000
     54 HB2        -0.7170    5.0560   -1.8170 hc        1 2ZS      0.114000
     55 HB3         0.2140    4.4050   -0.6970 hc        1 2ZS      0.114000
     56 HD1         0.2340    6.7480   -3.2240 ha        1 2ZS      0.131000
     57 HD2         2.7190    3.9790   -1.4620 ha        1 2ZS      0.134000
     58 HE1         2.1350    8.0110   -3.9810 ha        1 2ZS      0.132000
     59 HE2         4.6120    5.2320   -2.2130 ha        1 2ZS      0.133500
     60 HZ          4.3120    7.2260   -3.4590 ha        1 2ZS      0.133500
     61 H1          0.6100    1.2910   -0.4300 hn        1 2ZS      0.268000
     62 HA1        -1.9330    0.3160    0.0100 h1        1 2ZS      0.138000
     63 HB21       -0.2670   -0.7940   -1.9240 h1        1 2ZS      0.124500
     64 HB31       -0.8930   -1.8740   -0.9190 h1        1 2ZS      0.124500
     65 HCS1       -2.0010   -2.3660   -3.8610 h1        1 2ZS      0.103333
     66 HCS2       -2.6780   -3.1460   -2.6350 h1        1 2ZS      0.103333
     67 HCS3       -3.5830   -2.3170   -3.6580 h1        1 2ZS      0.103333
     68 HN1        -1.3780   -2.3510    1.0420 hn        1 2ZS      0.254000
     69 HA2        -0.6040   -3.2490    2.9310 h1        1 2ZS      0.116000
     70 HB1         1.8550   -2.0310    3.1070 hc        1 2ZS      0.114500
     71 HB22        1.5950   -2.4090    1.5800 hc        1 2ZS      0.114500
     72 HG          0.9230   -4.6270    2.7310 hc        1 2ZS      0.090000
     73 HD11        2.3340   -4.5970    0.9160 hc        1 2ZS      0.079250
     74 HD12        3.5040   -3.9290    1.7890 hc        1 2ZS      0.079250
     75 HD21        2.9380   -3.5150    4.3740 hc        1 2ZS      0.079250
     76 HD22        1.4810   -3.9830    4.8420 hc        1 2ZS      0.079250
     77 HE11        2.5770   -6.6210    2.0070 hc        1 2ZS      0.078750
     78 HE12        4.0380   -6.1650    1.5280 hc        1 2ZS      0.078750
     79 HE21        3.1800   -5.5510    5.4740 hc        1 2ZS      0.078750
     80 HE22        2.0120   -6.2200    4.5940 hc        1 2ZS      0.078750
     81 HZ1         4.6020   -5.5090    3.6600 hc        1 2ZS      0.078500
     82 HZ2         4.0180   -7.0030    3.7640 hc        1 2ZS      0.078500
     83 HC          0.4610   -1.1580    4.1890 h1        1 2ZS      0.111000
     84 HH         -1.1940    0.2600    4.0340 ho        1 2ZS      0.217000
     85 HM         -2.8410   -2.2820    6.7710 h1        1 2ZS      0.113000
     86 HM11       -0.9950   -1.5440    8.7710 hc        1 2ZS      0.088333
     87 HM12       -1.9260   -2.8440    8.7360 hc        1 2ZS      0.088333
     88 HM13       -2.5560   -1.4180    9.1020 hc        1 2ZS      0.088333
     89 HM21       -2.0140    0.4330    7.0960 hc        1 2ZS      0.088333
     90 HM22       -3.0310   -0.0940    5.9850 hc        1 2ZS      0.088333
     91 HM23       -3.4710   -0.0650    7.5280 hc        1 2ZS      0.088333
@<TRIPOS>BOND
     1    1    2 1   
     2    1    6 1   
     3    2    3 1   
     4    2   44 1   
     5    2   45 1   
     6    3    4 1   
     7    3   46 1   
     8    3   47 1   
     9    4    5 1   
    10    4    7 1   
    11    5    6 1   
    12    5   48 1   
    13    5   49 1   
    14    6   50 1   
    15    6   51 1   
    16    7    8 1   
    17    7    9 1   
    18    9   10 1   
    19    9   52 1   
    20   10   11 1   
    21   10   13 1   
    22   10   53 1   
    23   11   12 1   
    24   11   20 1   
    25   13   14 1   
    26   13   54 1   
    27   13   55 1   
    28   14   15 1   
    29   14   16 1   
    30   15   17 1   
    31   15   56 1   
    32   16   57 1   
    33   17   58 1   
    34   18   19 1   
    35   18   59 1   
    36   19   60 1   
    37   20   21 1   
    38   20   61 1   
    39   21   22 1   
    40   21   25 1   
    41   21   62 1   
    42   22   23 1   
    43   22   63 1   
    44   22   64 1   
    45   23   24 1   
    46   24   65 1   
    47   24   66 1   
    48   24   67 1   
    49   25   26 1   
    50   25   27 1   
    51   27   28 1   
    52   27   68 1   
    53   28   29 1   
    54   28   36 1   
    55   28   69 1   
    56   29   30 1   
    57   29   70 1   
    58   29   71 1   
    59   30   31 1   
    60   30   32 1   
    61   30   72 1   
    62   31   33 1   
    63   31   73 1   
    64   31   74 1   
    65   32   34 1   
    66   32   75 1   
    67   32   76 1   
    68   33   35 1   
    69   33   77 1   
    70   33   78 1   
    71   34   35 1   
    72   34   79 1   
    73   34   80 1   
    74   35   81 1   
    75   35   82 1   
    76   36   37 1   
    77   36   38 1   
    78   36   83 1   
    79   37   84 1   
    80   38   39 1   
    81   38   40 1   
    82   40   41 1   
    83   41   42 1   
    84   41   43 1   
    85   41   85 1   
    86   42   86 1   
    87   42   87 1   
    88   42   88 1   
    89   43   89 1   
    90   43   90 1   
    91   43   91 1   
@<TRIPOS>SUBSTRUCTURE
     1 2ZS         1 TEMP              0 ****  ****    0 ROOT
