@<TRIPOS>MOLECULE
2ZT
   36    39     1     0     0
SMALL
bcc


@<TRIPOS>ATOM
      1 C1         -0.0380   -0.8410    0.2190 ca        1 2ZT     -0.164300
      2 C2          1.3270   -0.9670    0.2500 ca        1 2ZT     -0.124000
      3 C3          2.0760   -0.5130    1.3620 ca        1 2ZT     -0.126000
      4 C4          1.4420    0.0640    2.4340 ca        1 2ZT     -0.112000
      5 C5          0.0310    0.2120    2.4390 ca        1 2ZT     -0.143300
      6 C6         -0.6670    0.8030    3.5300 ca        1 2ZT     -0.085000
      7 C7         -2.0310    0.9220    3.4740 ca        1 2ZT     -0.222300
      8 C8         -2.7210    0.4390    2.3120 ca        1 2ZT      0.415600
      9 C9         -4.2210    0.6130    2.2440 c3        1 2ZT      0.076100
     10 O10        -4.7090    0.5350    3.5910 os        1 2ZT     -0.333900
     11 C11        -6.0760    0.3520    3.7160 ca        1 2ZT      0.126100
     12 C12        -6.4970   -0.1350    4.9430 ca        1 2ZT     -0.199300
     13 C13        -7.8910   -0.2990    5.1920 ca        1 2ZT      0.421600
     14 N14        -8.3140   -0.7790    6.4220 nb        1 2ZT     -0.660000
     15 C15        -9.6110   -0.9240    6.6130 ca        1 2ZT      0.420200
     16 C16       -10.6140   -0.6190    5.6360 ca        1 2ZT     -0.258300
     17 C17       -10.2110   -0.1430    4.4150 ca        1 2ZT     -0.071000
     18 C18        -8.8210    0.0330    4.1560 ca        1 2ZT     -0.174300
     19 C19        -8.3440    0.5220    2.9160 ca        1 2ZT     -0.079000
     20 C20        -6.9990    0.6840    2.6900 ca        1 2ZT     -0.181000
     21 N21        -2.1080   -0.1260    1.2760 nb        1 2ZT     -0.660000
     22 C22        -0.7340   -0.2430    1.3210 ca        1 2ZT      0.397600
     23 H1         -0.6180   -1.1960   -0.6480 ha        1 2ZT      0.150000
     24 H2          1.8600   -1.4270   -0.5960 ha        1 2ZT      0.136000
     25 H3          3.1700   -0.6310    1.3530 ha        1 2ZT      0.135000
     26 H4          2.0120    0.4200    3.3050 ha        1 2ZT      0.135000
     27 H5         -0.0960    1.1550    4.4020 ha        1 2ZT      0.141000
     28 H6         -2.6150    1.3650    4.2940 ha        1 2ZT      0.162000
     29 H7         -4.7050   -0.1760    1.6110 h1        1 2ZT      0.063700
     30 H8         -4.4540    1.6340    1.8360 h1        1 2ZT      0.063700
     31 H9         -5.7610   -0.3860    5.7220 ha        1 2ZT      0.167000
     32 H10        -9.9180   -1.3090    7.6040 h4        1 2ZT      0.022100
     33 H11       -11.6720   -0.7720    5.8840 ha        1 2ZT      0.144000
     34 H12       -10.9360    0.1080    3.6270 ha        1 2ZT      0.137000
     35 H13        -9.0750    0.7740    2.1310 ha        1 2ZT      0.137000
     36 H14        -6.6400    1.0740    1.7270 ha        1 2ZT      0.142000
@<TRIPOS>BOND
     1    1    2 ar  
     2    1   22 ar  
     3    1   23 1   
     4    2    3 ar  
     5    2   24 1   
     6    3    4 ar  
     7    3   25 1   
     8    4    5 ar  
     9    4   26 1   
    10    5    6 ar  
    11    5   22 ar  
    12    6    7 ar  
    13    6   27 1   
    14    7    8 ar  
    15    7   28 1   
    16    8    9 1   
    17    8   21 ar  
    18    9   10 1   
    19    9   29 1   
    20    9   30 1   
    21   10   11 1   
    22   11   12 ar  
    23   11   20 ar  
    24   12   13 ar  
    25   12   31 1   
    26   13   14 ar  
    27   13   18 ar  
    28   14   15 ar  
    29   15   16 ar  
    30   15   32 1   
    31   16   17 ar  
    32   16   33 1   
    33   17   18 ar  
    34   17   34 1   
    35   18   19 ar  
    36   19   20 ar  
    37   19   35 1   
    38   20   36 1   
    39   21   22 ar  
@<TRIPOS>SUBSTRUCTURE
     1 2ZT         1 TEMP              0 ****  ****    0 ROOT
