@<TRIPOS>MOLECULE
2ZT
   36    39     1     0     0
SMALL
bcc


@<TRIPOS>ATOM
      1 C1         -0.0350   -0.8250    0.2180 ca        1 2ZT     -0.164300
      2 C2          1.3310   -0.9480    0.2490 ca        1 2ZT     -0.124000
      3 C3          2.0780   -0.4940    1.3620 ca        1 2ZT     -0.126000
      4 C4          1.4420    0.0790    2.4350 ca        1 2ZT     -0.112000
      5 C5          0.0310    0.2230    2.4400 ca        1 2ZT     -0.143300
      6 C6         -0.6690    0.8100    3.5320 ca        1 2ZT     -0.085000
      7 C7         -2.0340    0.9260    3.4770 ca        1 2ZT     -0.222300
      8 C8         -2.7220    0.4430    2.3130 ca        1 2ZT      0.415600
      9 C9         -4.2220    0.6130    2.2450 c3        1 2ZT      0.076100
     10 O10        -4.7110    0.5320    3.5920 os        1 2ZT     -0.333900
     11 C11        -6.0770    0.3460    3.7160 ca        1 2ZT      0.126100
     12 C12        -6.4970   -0.1420    4.9420 ca        1 2ZT     -0.199300
     13 C13        -7.8910   -0.3100    5.1910 ca        1 2ZT      0.421600
     14 N14        -8.3130   -0.7910    6.4200 nb        1 2ZT     -0.660000
     15 C15        -9.6100   -0.9400    6.6110 ca        1 2ZT      0.420200
     16 C16       -10.6130   -0.6370    5.6340 ca        1 2ZT     -0.258300
     17 C17       -10.2110   -0.1600    4.4140 ca        1 2ZT     -0.071000
     18 C18        -8.8210    0.0200    4.1550 ca        1 2ZT     -0.174300
     19 C19        -8.3450    0.5110    2.9150 ca        1 2ZT     -0.079000
     20 C20        -7.0010    0.6770    2.6900 ca        1 2ZT     -0.181000
     21 N21        -2.1070   -0.1170    1.2760 nb        1 2ZT     -0.660000
     22 C22        -0.7320   -0.2310    1.3210 ca        1 2ZT      0.397600
     23 H1         -0.6140   -1.1790   -0.6500 ha        1 2ZT      0.150000
     24 H2          1.8650   -1.4040   -0.5980 ha        1 2ZT      0.136000
     25 H3          3.1720   -0.6090    1.3540 ha        1 2ZT      0.135000
     26 H4          2.0110    0.4350    3.3070 ha        1 2ZT      0.135000
     27 H5         -0.1000    1.1620    4.4060 ha        1 2ZT      0.141000
     28 H6         -2.6190    1.3650    4.2970 ha        1 2ZT      0.162000
     29 H7         -4.7040   -0.1770    1.6110 h1        1 2ZT      0.063700
     30 H8         -4.4580    1.6340    1.8380 h1        1 2ZT      0.063700
     31 H9         -5.7610   -0.3920    5.7220 ha        1 2ZT      0.167000
     32 H10        -9.9160   -1.3260    7.6020 h4        1 2ZT      0.022100
     33 H11       -11.6710   -0.7920    5.8810 ha        1 2ZT      0.144000
     34 H12       -10.9370    0.0900    3.6250 ha        1 2ZT      0.137000
     35 H13        -9.0760    0.7610    2.1310 ha        1 2ZT      0.137000
     36 H14        -6.6420    1.0670    1.7270 ha        1 2ZT      0.142000
@<TRIPOS>BOND
     1    1    2 ar  
     2    1   22 ar  
     3    1   23 1   
     4    2    3 ar  
     5    2   24 1   
     6    3    4 ar  
     7    3   25 1   
     8    4    5 ar  
     9    4   26 1   
    10    5    6 ar  
    11    5   22 ar  
    12    6    7 ar  
    13    6   27 1   
    14    7    8 ar  
    15    7   28 1   
    16    8    9 1   
    17    8   21 ar  
    18    9   10 1   
    19    9   29 1   
    20    9   30 1   
    21   10   11 1   
    22   11   12 ar  
    23   11   20 ar  
    24   12   13 ar  
    25   12   31 1   
    26   13   14 ar  
    27   13   18 ar  
    28   14   15 ar  
    29   15   16 ar  
    30   15   32 1   
    31   16   17 ar  
    32   16   33 1   
    33   17   18 ar  
    34   17   34 1   
    35   18   19 ar  
    36   19   20 ar  
    37   19   35 1   
    38   20   36 1   
    39   21   22 ar  
@<TRIPOS>SUBSTRUCTURE
     1 2ZT         1 TEMP              0 ****  ****    0 ROOT
