@<TRIPOS>MOLECULE
2ZU
   36    39     1     0     0
SMALL
bcc


@<TRIPOS>ATOM
      1 C1          0.1790   -0.8850    0.0720 c3        1 2ZU     -0.122400
      2 C2          1.6110   -0.5230    0.1570 cc        1 2ZU      0.384200
      3 N3          2.3430   -0.5430    1.2580 nd        1 2ZU     -0.530100
      4 C4          3.6560   -0.1400    0.9600 ca        1 2ZU      0.115400
      5 C5          4.7070   -0.0470    1.8850 ca        1 2ZU     -0.106000
      6 C6          5.9570    0.3770    1.4220 ca        1 2ZU      0.124100
      7 C7          6.1780    0.7020    0.0680 ca        1 2ZU     -0.186000
      8 C8          5.1400    0.6030   -0.8460 ca        1 2ZU     -0.056000
      9 C9          3.8790    0.1880   -0.4220 ca        1 2ZU     -0.116100
     10 S10         2.4440   -0.0230   -1.2900 ss        1 2ZU     -0.058100
     11 O11         6.9240    0.4870    2.4050 os        1 2ZU     -0.332900
     12 C12         8.2750    0.5840    1.9320 c3        1 2ZU      0.075100
     13 C13         9.1720    0.4100    3.1360 ca        1 2ZU      0.416600
     14 C14         8.7080    0.8920    4.4060 ca        1 2ZU     -0.222300
     15 C15         9.5290    0.7730    5.4980 ca        1 2ZU     -0.085000
     16 C16        10.8160    0.1830    5.3480 ca        1 2ZU     -0.143300
     17 C17        11.7120    0.0350    6.4360 ca        1 2ZU     -0.112000
     18 C18        12.9440   -0.5410    6.2490 ca        1 2ZU     -0.125000
     19 C19        13.3320   -0.9940    4.9650 ca        1 2ZU     -0.124000
     20 C20        12.4920   -0.8680    3.8880 ca        1 2ZU     -0.164300
     21 C21        11.1980   -0.2710    4.0470 ca        1 2ZU      0.397600
     22 N22        10.3630   -0.1540    2.9550 nb        1 2ZU     -0.659000
     23 H1          0.0240   -1.9450    0.3990 hc        1 2ZU      0.063700
     24 H2         -0.4310   -0.2210    0.7360 hc        1 2ZU      0.063700
     25 H3         -0.1840   -0.7750   -0.9790 hc        1 2ZU      0.063700
     26 H4          4.5590   -0.2960    2.9460 ha        1 2ZU      0.168000
     27 H5          7.1680    1.0370   -0.2720 ha        1 2ZU      0.143000
     28 H6          5.3130    0.8550   -1.9040 ha        1 2ZU      0.142000
     29 H7          8.4650   -0.2000    1.1520 h1        1 2ZU      0.064200
     30 H8          8.4370    1.6080    1.4990 h1        1 2ZU      0.064200
     31 H9          7.7040    1.3330    4.4720 ha        1 2ZU      0.161000
     32 H10         9.2140    1.1250    6.4920 ha        1 2ZU      0.141000
     33 H11        11.3990    0.3910    7.4290 ha        1 2ZU      0.135000
     34 H12        13.6430   -0.6580    7.0900 ha        1 2ZU      0.135000
     35 H13        14.3250   -1.4530    4.8420 ha        1 2ZU      0.136000
     36 H14        12.7960   -1.2220    2.8910 ha        1 2ZU      0.150000
@<TRIPOS>BOND
     1    1    2 1   
     2    1   23 1   
     3    1   24 1   
     4    1   25 1   
     5    2    3 2   
     6    2   10 1   
     7    3    4 1   
     8    4    5 ar  
     9    4    9 ar  
    10    5    6 ar  
    11    5   26 1   
    12    6    7 ar  
    13    6   11 1   
    14    7    8 ar  
    15    7   27 1   
    16    8    9 ar  
    17    8   28 1   
    18    9   10 1   
    19   11   12 1   
    20   12   13 1   
    21   12   29 1   
    22   12   30 1   
    23   13   14 ar  
    24   13   22 ar  
    25   14   15 ar  
    26   14   31 1   
    27   15   16 ar  
    28   15   32 1   
    29   16   17 ar  
    30   16   21 ar  
    31   17   18 ar  
    32   17   33 1   
    33   18   19 ar  
    34   18   34 1   
    35   19   20 ar  
    36   19   35 1   
    37   20   21 ar  
    38   20   36 1   
    39   21   22 ar  
@<TRIPOS>SUBSTRUCTURE
     1 2ZU         1 TEMP              0 ****  ****    0 ROOT
