@<TRIPOS>MOLECULE
2ZU
   36    39     1     0     0
SMALL
bcc


@<TRIPOS>ATOM
      1 C1          0.1670   -0.8270    0.0920 c3        1 2ZU     -0.122400
      2 C2          1.6040   -0.4860    0.1690 cc        1 2ZU      0.384200
      3 N3          2.3360   -0.4900    1.2700 nd        1 2ZU     -0.530100
      4 C4          3.6550   -0.1140    0.9630 ca        1 2ZU      0.115400
      5 C5          4.7080   -0.0160    1.8860 ca        1 2ZU     -0.106000
      6 C6          5.9640    0.3770    1.4120 ca        1 2ZU      0.123100
      7 C7          6.1900    0.6650    0.0510 ca        1 2ZU     -0.186000
      8 C8          5.1500    0.5600   -0.8610 ca        1 2ZU     -0.056000
      9 C9          3.8840    0.1750   -0.4270 ca        1 2ZU     -0.116100
     10 S10         2.4450   -0.0340   -1.2900 ss        1 2ZU     -0.058100
     11 O11         6.9330    0.4970    2.3930 os        1 2ZU     -0.332900
     12 C12         8.2850    0.5560    1.9180 c3        1 2ZU      0.075100
     13 C13         9.1790    0.3950    3.1260 ca        1 2ZU      0.416600
     14 C14         8.7260    0.9190    4.3830 ca        1 2ZU     -0.222300
     15 C15         9.5440    0.8120    5.4780 ca        1 2ZU     -0.085000
     16 C16        10.8180    0.1930    5.3430 ca        1 2ZU     -0.143300
     17 C17        11.7120    0.0550    6.4350 ca        1 2ZU     -0.112000
     18 C18        12.9320   -0.5500    6.2630 ca        1 2ZU     -0.125000
     19 C19        13.3100   -1.0440    4.9920 ca        1 2ZU     -0.124000
     20 C20        12.4720   -0.9290    3.9120 ca        1 2ZU     -0.164300
     21 C21        11.1910   -0.3030    4.0550 ca        1 2ZU      0.397600
     22 N22        10.3580   -0.1970    2.9590 nb        1 2ZU     -0.659000
     23 H1         -0.0040   -1.8760    0.4440 hc        1 2ZU      0.063700
     24 H2         -0.4330   -0.1380    0.7400 hc        1 2ZU      0.063700
     25 H3         -0.1950   -0.7370   -0.9610 hc        1 2ZU      0.063700
     26 H4          4.5560   -0.2360    2.9520 ha        1 2ZU      0.168000
     27 H5          7.1850    0.9760   -0.2970 ha        1 2ZU      0.143000
     28 H6          5.3270    0.7830   -1.9240 ha        1 2ZU      0.142000
     29 H7          8.4600   -0.2500    1.1570 h1        1 2ZU      0.064200
     30 H8          8.4660    1.5660    1.4600 h1        1 2ZU      0.064200
     31 H9          7.7300    1.3820    4.4380 ha        1 2ZU      0.161000
     32 H10         9.2360    1.1960    6.4620 ha        1 2ZU      0.141000
     33 H11        11.4060    0.4430    7.4190 ha        1 2ZU      0.135000
     34 H12        13.6290   -0.6590    7.1080 ha        1 2ZU      0.135000
     35 H13        14.2940   -1.5260    4.8810 ha        1 2ZU      0.136000
     36 H14        12.7690   -1.3150    2.9240 ha        1 2ZU      0.150000
@<TRIPOS>BOND
     1    1    2 1   
     2    1   23 1   
     3    1   24 1   
     4    1   25 1   
     5    2    3 2   
     6    2   10 1   
     7    3    4 1   
     8    4    5 ar  
     9    4    9 ar  
    10    5    6 ar  
    11    5   26 1   
    12    6    7 ar  
    13    6   11 1   
    14    7    8 ar  
    15    7   27 1   
    16    8    9 ar  
    17    8   28 1   
    18    9   10 1   
    19   11   12 1   
    20   12   13 1   
    21   12   29 1   
    22   12   30 1   
    23   13   14 ar  
    24   13   22 ar  
    25   14   15 ar  
    26   14   31 1   
    27   15   16 ar  
    28   15   32 1   
    29   16   17 ar  
    30   16   21 ar  
    31   17   18 ar  
    32   17   33 1   
    33   18   19 ar  
    34   18   34 1   
    35   19   20 ar  
    36   19   35 1   
    37   20   21 ar  
    38   20   36 1   
    39   21   22 ar  
@<TRIPOS>SUBSTRUCTURE
     1 2ZU         1 TEMP              0 ****  ****    0 ROOT
