@<TRIPOS>MOLECULE
2ZV
   18    18     1     0     0
SMALL
bcc


@<TRIPOS>ATOM
      1 C1          0.0050   -0.1370    0.0560 c3        1 2ZV     -0.076800
      2 C2          1.4840   -0.0770    0.0050 ca        1 2ZV      0.077700
      3 C3          2.2040   -0.1310    1.1960 ca        1 2ZV     -0.333300
      4 C4          3.6090   -0.0700    1.1460 ca        1 2ZV      0.493200
      5 N5          4.3200    0.0290    0.0260 nb        1 2ZV     -0.751000
      6 C6          3.6460    0.0730   -1.1830 ca        1 2ZV      0.743200
      7 N7          4.4130    0.0810   -2.3200 nv        1 2ZV     -0.945500
      8 C8          2.2000    0.0400   -1.2140 ca        1 2ZV     -0.387500
      9 N9          1.4620    0.1270   -2.4860 no        1 2ZV      0.331200
     10 O10         1.9530    0.7030   -3.4280 o         1 2ZV     -0.227000
     11 O11         0.3670   -0.3640   -2.5740 o         1 2ZV     -0.227000
     12 H1         -0.3610   -0.0980    1.1120 hc        1 2ZV      0.068700
     13 H2         -0.3550   -1.0880   -0.4140 hc        1 2ZV      0.068700
     14 H3         -0.4510    0.7150   -0.5090 hc        1 2ZV      0.068700
     15 H4          1.6890   -0.2170    2.1620 ha        1 2ZV      0.156000
     16 H5          4.2060   -0.0990    2.0790 h4        1 2ZV      0.031100
     17 H6          5.4000    0.1580   -2.2340 hn        1 2ZV      0.454300
     18 H7          4.0060    0.3200   -3.1930 hn        1 2ZV      0.454300
@<TRIPOS>BOND
     1    1    2 1   
     2    1   12 1   
     3    1   13 1   
     4    1   14 1   
     5    2    3 ar  
     6    2    8 ar  
     7    3    4 ar  
     8    3   15 1   
     9    4    5 ar  
    10    4   16 1   
    11    5    6 ar  
    12    6    7 1   
    13    6    8 ar  
    14    7   17 1   
    15    7   18 1   
    16    8    9 1   
    17    9   10 1   
    18    9   11 1   
@<TRIPOS>SUBSTRUCTURE
     1 2ZV         1 TEMP              0 ****  ****    0 ROOT
