@<TRIPOS>MOLECULE
2ZV
   18    18     1     0     0
SMALL
bcc


@<TRIPOS>ATOM
      1 C1         -0.0020   -0.0400    0.0480 c3        1 2ZV     -0.076800
      2 C2          1.4790   -0.0400    0.0030 ca        1 2ZV      0.077700
      3 C3          2.1910   -0.1100    1.1970 ca        1 2ZV     -0.333300
      4 C4          3.5980   -0.1070    1.1530 ca        1 2ZV      0.493200
      5 N5          4.3170   -0.0480    0.0350 nb        1 2ZV     -0.751000
      6 C6          3.6500    0.0100   -1.1770 ca        1 2ZV      0.743200
      7 N7          4.4220   -0.0260   -2.3110 nh        1 2ZV     -0.945500
      8 C8          2.2040    0.0350   -1.2140 ca        1 2ZV     -0.387500
      9 N9          1.4750    0.1370   -2.4910 no        1 2ZV      0.331200
     10 O10         1.9930    0.6820   -3.4360 o         1 2ZV     -0.227000
     11 O11         0.3620   -0.3100   -2.5780 o         1 2ZV     -0.227000
     12 H1         -0.3700    0.0250    1.1010 hc        1 2ZV      0.068700
     13 H2         -0.3980   -0.9810   -0.4140 hc        1 2ZV      0.068700
     14 H3         -0.4200    0.8240   -0.5290 hc        1 2ZV      0.068700
     15 H4          1.6690   -0.1650    2.1620 ha        1 2ZV      0.156000
     16 H5          4.1900   -0.1500    2.0890 h4        1 2ZV      0.031100
     17 H6          5.4100    0.0120   -2.2210 hn        1 2ZV      0.454300
     18 H7          4.0280    0.2190   -3.1890 hn        1 2ZV      0.454300
@<TRIPOS>BOND
     1    1    2 1   
     2    1   12 1   
     3    1   13 1   
     4    1   14 1   
     5    2    3 ar  
     6    2    8 ar  
     7    3    4 ar  
     8    3   15 1   
     9    4    5 ar  
    10    4   16 1   
    11    5    6 ar  
    12    6    7 1   
    13    6    8 ar  
    14    7   17 1   
    15    7   18 1   
    16    8    9 1   
    17    9   10 1   
    18    9   11 1   
@<TRIPOS>SUBSTRUCTURE
     1 2ZV         1 TEMP              0 ****  ****    0 ROOT
