@<TRIPOS>MOLECULE
2ZV
   18    18     1     0     0
SMALL
bcc


@<TRIPOS>ATOM
      1 C1          0.0040   -0.1600    0.0490 c3        1 2ZV     -0.076800
      2 C2          1.4830   -0.0900    0.0020 ca        1 2ZV      0.077700
      3 C3          2.2000   -0.1580    1.1940 ca        1 2ZV     -0.333300
      4 C4          3.6060   -0.0880    1.1480 ca        1 2ZV      0.493200
      5 N5          4.3180    0.0320    0.0320 nb        1 2ZV     -0.751000
      6 C6          3.6470    0.0900   -1.1790 ca        1 2ZV      0.743200
      7 N7          4.4170    0.1180   -2.3130 nh        1 2ZV     -0.945500
      8 C8          2.2010    0.0480   -1.2130 ca        1 2ZV     -0.387500
      9 N9          1.4650    0.1490   -2.4860 no        1 2ZV      0.331200
     10 O10         1.9550    0.7410   -3.4180 o         1 2ZV     -0.227000
     11 O11         0.3740   -0.3480   -2.5830 o         1 2ZV     -0.227000
     12 H1         -0.4550    0.6970   -0.5050 hc        1 2ZV      0.068700
     13 H2         -0.3640   -0.1390    1.1050 hc        1 2ZV      0.068700
     14 H3         -0.3490   -1.1070   -0.4360 hc        1 2ZV      0.068700
     15 H4          1.6840   -0.2610    2.1570 ha        1 2ZV      0.156000
     16 H5          4.2010   -0.1270    2.0820 h4        1 2ZV      0.031100
     17 H6          5.4020    0.2000   -2.2240 hn        1 2ZV      0.454300
     18 H7          4.0100    0.3670   -3.1850 hn        1 2ZV      0.454300
@<TRIPOS>BOND
     1    1    2 1   
     2    1   12 1   
     3    1   13 1   
     4    1   14 1   
     5    2    3 ar  
     6    2    8 ar  
     7    3    4 ar  
     8    3   15 1   
     9    4    5 ar  
    10    4   16 1   
    11    5    6 ar  
    12    6    7 1   
    13    6    8 ar  
    14    7   17 1   
    15    7   18 1   
    16    8    9 1   
    17    9   10 1   
    18    9   11 1   
@<TRIPOS>SUBSTRUCTURE
     1 2ZV         1 TEMP              0 ****  ****    0 ROOT
