@<TRIPOS>MOLECULE
2ZW
   44    46     1     0     0
SMALL
bcc


@<TRIPOS>ATOM
      1 CP3         0.3890    0.3290   -0.4770 c3        1 2ZW     -0.088100
      2 CP1         1.8130    0.0900   -0.0110 c3        1 2ZW     -0.019400
      3 CP2         1.8890    0.1300    1.5040 c3        1 2ZW     -0.088100
      4 C44         2.3420   -1.2040   -0.5420 ca        1 2ZW     -0.099300
      5 C45         1.7420   -2.4220   -0.2090 ca        1 2ZW     -0.102500
      6 C46         2.2300   -3.6290   -0.7000 ca        1 2ZW     -0.165000
      7 C43         3.4560   -1.2170   -1.3880 ca        1 2ZW     -0.102500
      8 C42         3.9580   -2.4100   -1.8920 ca        1 2ZW     -0.165000
      9 C41         3.3520   -3.6450   -1.5550 ca        1 2ZW      0.065600
     10 N3          3.9100   -4.8250   -2.0750 ns        1 2ZW     -0.458100
     11 C3          3.3480   -6.0910   -2.0580 c         1 2ZW      0.718700
     12 O3          2.2350   -6.3380   -1.5490 o         1 2ZW     -0.602100
     13 C25         4.1300   -7.1610   -2.6960 cc        1 2ZW     -0.388200
     14 C24         3.6110   -8.3410   -3.2160 cd        1 2ZW      0.353000
     15 CM          2.2730   -8.9160   -3.3380 c3        1 2ZW     -0.160400
     16 O23         4.6920   -9.0920   -3.7200 os        1 2ZW     -0.114100
     17 N22         5.8280   -8.4510   -3.5290 nd        1 2ZW     -0.331300
     18 C21         5.5770   -7.2740   -2.9160 cc        1 2ZW      0.388800
     19 C11         6.6020   -6.3140   -2.5200 ca        1 2ZW     -0.143500
     20 C12         7.1270   -5.3880   -3.4360 ca        1 2ZW      0.027400
     21 Cl          6.5650   -5.3390   -5.0380 cl        1 2ZW     -0.073400
     22 C13         8.1220   -4.4890   -3.0360 ca        1 2ZW     -0.130000
     23 C14         8.5930   -4.5150   -1.7250 ca        1 2ZW     -0.106000
     24 C15         8.0770   -5.4340   -0.8110 ca        1 2ZW     -0.128000
     25 C16         7.0880   -6.3320   -1.2060 ca        1 2ZW     -0.087000
     26 H1         -0.2900   -0.4710   -0.0950 hc        1 2ZW      0.036033
     27 H2          0.0240    1.3140   -0.1000 hc        1 2ZW      0.036033
     28 H3          0.3400    0.3310   -1.5920 hc        1 2ZW      0.036033
     29 H4          2.4530    0.9300   -0.4110 hc        1 2ZW      0.048700
     30 H5          2.9420   -0.0130    1.8450 hc        1 2ZW      0.036033
     31 H6          1.5220    1.1150    1.8790 hc        1 2ZW      0.036033
     32 H7          1.2590   -0.6770    1.9510 hc        1 2ZW      0.036033
     33 H8          0.8640   -2.4320    0.4560 ha        1 2ZW      0.133000
     34 H9          1.7260   -4.5670   -0.4150 ha        1 2ZW      0.150000
     35 H10         3.9450   -0.2700   -1.6650 ha        1 2ZW      0.133000
     36 H11         4.8350   -2.3810   -2.5570 ha        1 2ZW      0.150000
     37 H12         4.7710   -4.7130   -2.5670 hn        1 2ZW      0.326500
     38 H13         1.9520   -8.9150   -4.4110 hc        1 2ZW      0.082700
     39 H14         1.5520   -8.3070   -2.7330 hc        1 2ZW      0.082700
     40 H15         2.2690   -9.9730   -2.9700 hc        1 2ZW      0.082700
     41 H16         8.5340   -3.7670   -3.7580 ha        1 2ZW      0.153000
     42 H17         9.3770   -3.8080   -1.4130 ha        1 2ZW      0.143000
     43 H18         8.4520   -5.4540    0.2230 ha        1 2ZW      0.145000
     44 H19         6.6850   -7.0630   -0.4880 ha        1 2ZW      0.151000
@<TRIPOS>BOND
     1    1    2 1   
     2    1   26 1   
     3    1   27 1   
     4    1   28 1   
     5    2    3 1   
     6    2    4 1   
     7    2   29 1   
     8    3   30 1   
     9    3   31 1   
    10    3   32 1   
    11    4    5 ar  
    12    4    7 ar  
    13    5    6 ar  
    14    5   33 1   
    15    6    9 ar  
    16    6   34 1   
    17    7    8 ar  
    18    7   35 1   
    19    8    9 ar  
    20    8   36 1   
    21    9   10 1   
    22   10   11 1   
    23   10   37 1   
    24   11   12 2   
    25   11   13 1   
    26   13   14 2   
    27   13   18 1   
    28   14   15 1   
    29   14   16 1   
    30   15   38 1   
    31   15   39 1   
    32   15   40 1   
    33   16   17 1   
    34   17   18 2   
    35   18   19 1   
    36   19   20 ar  
    37   19   25 ar  
    38   20   21 1   
    39   20   22 ar  
    40   22   23 ar  
    41   22   41 1   
    42   23   24 ar  
    43   23   42 1   
    44   24   25 ar  
    45   24   43 1   
    46   25   44 1   
@<TRIPOS>SUBSTRUCTURE
     1 2ZW         1 TEMP              0 ****  ****    0 ROOT
