@<TRIPOS>MOLECULE
2ZW
   44    46     1     0     0
SMALL
bcc


@<TRIPOS>ATOM
      1 CP3         0.3840    0.3300   -0.4980 c3        1 2ZW     -0.088100
      2 CP1         1.8040    0.0880   -0.0190 c3        1 2ZW     -0.019400
      3 CP2         1.8650    0.1240    1.4960 c3        1 2ZW     -0.088100
      4 C44         2.3360   -1.2050   -0.5490 ca        1 2ZW     -0.099300
      5 C45         1.7320   -2.4230   -0.2250 ca        1 2ZW     -0.102500
      6 C46         2.2230   -3.6290   -0.7150 ca        1 2ZW     -0.165000
      7 C43         3.4580   -1.2170   -1.3850 ca        1 2ZW     -0.102500
      8 C42         3.9640   -2.4090   -1.8870 ca        1 2ZW     -0.165000
      9 C41         3.3530   -3.6430   -1.5600 ca        1 2ZW      0.065600
     10 N3          3.9150   -4.8230   -2.0770 n         1 2ZW     -0.458100
     11 C3          3.3500   -6.0880   -2.0700 c         1 2ZW      0.718700
     12 O3          2.2320   -6.3350   -1.5740 o         1 2ZW     -0.602100
     13 C25         4.1380   -7.1580   -2.7040 cc        1 2ZW     -0.388200
     14 C24         3.6210   -8.3350   -3.2330 cd        1 2ZW      0.353000
     15 CM          2.2840   -8.9070   -3.3710 c3        1 2ZW     -0.160400
     16 O23         4.7060   -9.0860   -3.7290 os        1 2ZW     -0.114100
     17 N22         5.8410   -8.4470   -3.5250 nd        1 2ZW     -0.331300
     18 C21         5.5860   -7.2720   -2.9100 cc        1 2ZW      0.388800
     19 C11         6.6090   -6.3160   -2.5000 ca        1 2ZW     -0.143500
     20 C12         7.1440   -5.3860   -3.4070 ca        1 2ZW      0.027400
     21 CL          6.5990   -5.3310   -5.0140 cl        1 2ZW     -0.073400
     22 C13         8.1370   -4.4910   -2.9940 ca        1 2ZW     -0.130000
     23 C14         8.5940   -4.5220   -1.6780 ca        1 2ZW     -0.106000
     24 C15         8.0680   -5.4440   -0.7730 ca        1 2ZW     -0.128000
     25 C16         7.0810   -6.3390   -1.1810 ca        1 2ZW     -0.087000
     26 H1         -0.2990   -0.4700   -0.1250 hc        1 2ZW      0.036033
     27 H2          0.0170    1.3150   -0.1220 hc        1 2ZW      0.036033
     28 H3          0.3460    0.3360   -1.6140 hc        1 2ZW      0.036033
     29 H4          2.4480    0.9290   -0.4110 hc        1 2ZW      0.048700
     30 H5          2.9140   -0.0210    1.8470 hc        1 2ZW      0.036033
     31 H6          1.4960    1.1090    1.8700 hc        1 2ZW      0.036033
     32 H7          1.2300   -0.6830    1.9350 hc        1 2ZW      0.036033
     33 H8          0.8470   -2.4340    0.4310 ha        1 2ZW      0.133000
     34 H9          1.7160   -4.5680   -0.4380 ha        1 2ZW      0.150000
     35 H10         3.9510   -0.2700   -1.6540 ha        1 2ZW      0.133000
     36 H11         4.8470   -2.3790   -2.5440 ha        1 2ZW      0.150000
     37 H12         4.7810   -4.7110   -2.5600 hn        1 2ZW      0.326500
     38 H13         1.9740   -8.9010   -4.4470 hc        1 2ZW      0.082700
     39 H14         1.5580   -8.2990   -2.7710 hc        1 2ZW      0.082700
     40 H15         2.2750   -9.9650   -3.0070 hc        1 2ZW      0.082700
     41 H16         8.5580   -3.7670   -3.7090 ha        1 2ZW      0.153000
     42 H17         9.3770   -3.8180   -1.3560 ha        1 2ZW      0.143000
     43 H18         8.4320   -5.4680    0.2650 ha        1 2ZW      0.145000
     44 H19         6.6700   -7.0720   -0.4700 ha        1 2ZW      0.151000
@<TRIPOS>BOND
     1    1    2 1   
     2    1   26 1   
     3    1   27 1   
     4    1   28 1   
     5    2    3 1   
     6    2    4 1   
     7    2   29 1   
     8    3   30 1   
     9    3   31 1   
    10    3   32 1   
    11    4    5 ar  
    12    4    7 ar  
    13    5    6 ar  
    14    5   33 1   
    15    6    9 ar  
    16    6   34 1   
    17    7    8 ar  
    18    7   35 1   
    19    8    9 ar  
    20    8   36 1   
    21    9   10 1   
    22   10   11 1   
    23   10   37 1   
    24   11   12 2   
    25   11   13 1   
    26   13   14 2   
    27   13   18 1   
    28   14   15 1   
    29   14   16 1   
    30   15   38 1   
    31   15   39 1   
    32   15   40 1   
    33   16   17 1   
    34   17   18 2   
    35   18   19 1   
    36   19   20 ar  
    37   19   25 ar  
    38   20   21 1   
    39   20   22 ar  
    40   22   23 ar  
    41   22   41 1   
    42   23   24 ar  
    43   23   42 1   
    44   24   25 ar  
    45   24   43 1   
    46   25   44 1   
@<TRIPOS>SUBSTRUCTURE
     1 2ZW         1 TEMP              0 ****  ****    0 ROOT
