@<TRIPOS>MOLECULE
2ZX
   14    14     1     0     0
SMALL
bcc


@<TRIPOS>ATOM
      1 N1         -0.0170    0.1700    0.0240 nv        1 2ZX     -0.944500
      2 C2          1.3650    0.0440   -0.0040 ca        1 2ZX      0.717200
      3 C3          2.0870   -0.0510    1.2300 ca        1 2ZX     -0.475600
      4 C4          3.4850   -0.0720    1.1380 ca        1 2ZX      0.589300
      5 Cl5         4.3800   -0.1580    2.5970 cl        1 2ZX     -0.150000
      6 N6          4.1710   -0.0230   -0.0210 nb        1 2ZX     -0.779000
      7 C7          3.3930    0.0300   -1.1750 ca        1 2ZX      0.914900
      8 N8          4.0630   -0.0310   -2.3980 nv        1 2ZX     -0.930500
      9 N9          2.0090    0.0770   -1.2120 nb        1 2ZX     -0.818000
     10 H1         -0.4660   -0.1540    0.8470 hn        1 2ZX      0.424800
     11 H2         -0.5170    0.0610   -0.8280 hn        1 2ZX      0.424800
     12 H3          1.5740   -0.0880    2.1960 ha        1 2ZX      0.162000
     13 H4          3.5570    0.2500   -3.2050 hn        1 2ZX      0.432300
     14 H5          5.0370    0.1620   -2.3880 hn        1 2ZX      0.432300
@<TRIPOS>BOND
     1    1    2 1   
     2    1   10 1   
     3    1   11 1   
     4    2    3 ar  
     5    2    9 ar  
     6    3    4 ar  
     7    3   12 1   
     8    4    5 1   
     9    4    6 ar  
    10    6    7 ar  
    11    7    8 1   
    12    7    9 ar  
    13    8   13 1   
    14    8   14 1   
@<TRIPOS>SUBSTRUCTURE
     1 2ZX         1 TEMP              0 ****  ****    0 ROOT
