@<TRIPOS>MOLECULE
2ZX
   16    16     1     0     0
SMALL
bcc


@<TRIPOS>ATOM
      1 N1         -0.0810   -0.0430   -0.0320 n4        1 2ZX     -0.827300
      2 C2          1.3970   -0.0170    0.0070 ca        1 2ZX      0.534200
      3 C3          2.0690   -0.0130    1.2390 ca        1 2ZX     -0.268600
      4 C4          3.5040    0.0140    1.1930 ca        1 2ZX      0.575300
      5 CL5         4.3630    0.0190    2.6310 cl        1 2ZX      0.078000
      6 N6          4.1750    0.0340    0.0160 nb        1 2ZX     -0.626000
      7 C7          3.4060    0.0280   -1.1240 ca        1 2ZX      0.778900
      8 N8          4.1600    0.0500   -2.4130 n4        1 2ZX     -0.819300
      9 N9          2.0440    0.0030   -1.2030 nb        1 2ZX     -0.672000
     10 H1         -0.4500   -0.0570    0.9310 hn        1 2ZX      0.500133
     11 H2         -0.4410    0.7940   -0.5220 hn        1 2ZX      0.500133
     12 H3          1.5570   -0.0290    2.2200 ha        1 2ZX      0.230000
     13 H4          3.5140    0.0470   -3.2180 hn        1 2ZX      0.506133
     14 H5          4.7480    0.9010   -2.4460 hn        1 2ZX      0.506133
     15 H13        -0.4110   -0.8850   -0.5340 hn        1 2ZX      0.500133
     16 H83         4.7730   -0.7820   -2.4600 hn        1 2ZX      0.506133
@<TRIPOS>BOND
     1    1    2 1   
     2    1   10 1   
     3    1   11 1   
     4    1   15 1   
     5    2    3 ar  
     6    2    9 ar  
     7    3    4 ar  
     8    3   12 1   
     9    4    5 1   
    10    4    6 ar  
    11    6    7 ar  
    12    7    8 1   
    13    7    9 ar  
    14    8   13 1   
    15    8   14 1   
    16    8   16 1   
@<TRIPOS>SUBSTRUCTURE
     1 2ZX         1 TEMP              0 ****  ****    0 ROOT
