@<TRIPOS>MOLECULE
2ZX
   14    14     1     0     0
SMALL
bcc


@<TRIPOS>ATOM
      1 N1         -0.0170    0.1690    0.0210 nh        1 2ZX     -0.947500
      2 C2          1.3650    0.0580   -0.0040 ca        1 2ZX      0.721200
      3 C3          2.0870   -0.0220    1.2310 ca        1 2ZX     -0.477600
      4 C4          3.4850   -0.0610    1.1390 ca        1 2ZX      0.590300
      5 CL5         4.3790   -0.1730    2.5980 cl        1 2ZX     -0.151000
      6 N6          4.1720   -0.0250   -0.0200 nb        1 2ZX     -0.781000
      7 C7          3.3940    0.0690   -1.1720 ca        1 2ZX      0.918900
      8 N8          4.0690    0.2110   -2.3840 nh        1 2ZX     -0.933500
      9 N9          2.0100    0.0750   -1.2130 nb        1 2ZX     -0.822000
     10 H1         -0.4670   -0.1400    0.8490 hn        1 2ZX      0.426300
     11 H2         -0.5180    0.0640   -0.8290 hn        1 2ZX      0.426300
     12 H3          1.5740   -0.0410    2.1980 ha        1 2ZX      0.162000
     13 H4          5.0350   -0.0180   -2.3970 hn        1 2ZX      0.434300
     14 H5          3.5520    0.0540   -3.2160 hn        1 2ZX      0.434300
@<TRIPOS>BOND
     1    1    2 1   
     2    1   10 1   
     3    1   11 1   
     4    2    3 ar  
     5    2    9 ar  
     6    3    4 ar  
     7    3   12 1   
     8    4    5 1   
     9    4    6 ar  
    10    6    7 ar  
    11    7    8 1   
    12    7    9 ar  
    13    8   13 1   
    14    8   14 1   
@<TRIPOS>SUBSTRUCTURE
     1 2ZX         1 TEMP              0 ****  ****    0 ROOT
