@<TRIPOS>MOLECULE
2ZY
   31    32     1     0     0
SMALL
bcc


@<TRIPOS>ATOM
      1 O18         0.0490   -0.3900   -0.1720 o         1 2ZY     -0.564500
      2 C15         1.2620   -0.2010   -0.0810 c         1 2ZY      0.682700
      3 N14         1.9880   -0.0660    1.1420 n         1 2ZY     -0.449300
      4 C16         1.4350   -0.1460    2.4390 c3        1 2ZY      0.088000
      5 C19         1.5150   -1.5760    3.1080 c3        1 2ZY      0.593900
      6 C13         3.3580    0.1820    0.7970 cc        1 2ZY      0.468900
      7 C17         4.3930    0.4020    1.8460 c3        1 2ZY     -0.137400
      8 C11         2.3160   -0.0280   -1.1570 cd        1 2ZY     -0.001600
      9 N12         3.5710    0.2060   -0.5150 nd        1 2ZY     -0.584300
     10 C10         2.0150   -0.0790   -2.4700 ce        1 2ZY      0.012800
     11 C2          2.9220    0.0870   -3.5880 ca        1 2ZY     -0.066800
     12 C1          2.3940    0.6050   -4.7830 ca        1 2ZY     -0.108500
     13 C6          3.2120    0.7930   -5.9050 ca        1 2ZY      0.082400
     14 F8          2.6980    1.3020   -7.0460 f         1 2ZY     -0.127400
     15 C5          4.5830    0.4420   -5.8380 ca        1 2ZY      0.079100
     16 O9          5.3410    0.6400   -6.9610 oh        1 2ZY     -0.469100
     17 C4          5.1000   -0.0930   -4.6380 ca        1 2ZY      0.082400
     18 F7          6.4120   -0.4360   -4.5850 f         1 2ZY     -0.127400
     19 C3          4.2730   -0.2680   -3.5180 ca        1 2ZY     -0.108500
     20 F20         0.9480   -2.5870    2.3820 f         1 2ZY     -0.233967
     21 F21         2.7910   -2.0000    3.3790 f         1 2ZY     -0.233967
     22 F22         0.8740   -1.5980    4.3200 f         1 2ZY     -0.233967
     23 H1          0.3370    0.1100    2.3890 h1        1 2ZY      0.099200
     24 H2          1.9700    0.5540    3.1400 h1        1 2ZY      0.099200
     25 H4          5.4050    0.5070    1.3820 hc        1 2ZY      0.075700
     26 H5          4.4070   -0.4650    2.5550 hc        1 2ZY      0.075700
     27 H6          4.1580    1.3370    2.4150 hc        1 2ZY      0.075700
     28 H7          0.9520   -0.2450   -2.7380 ha        1 2ZY      0.156000
     29 H9          1.3290    0.8780   -4.8490 ha        1 2ZY      0.169000
     30 H10         6.2490    0.3560   -6.7640 ho        1 2ZY      0.436000
     31 H11         4.7090   -0.6920   -2.6000 ha        1 2ZY      0.169000
@<TRIPOS>BOND
     1    1    2 2   
     2    2    3 1   
     3    2    8 1   
     4    3    4 1   
     5    3    6 1   
     6    4    5 1   
     7    4   23 1   
     8    4   24 1   
     9    5   20 1   
    10    5   21 1   
    11    5   22 1   
    12    6    7 1   
    13    6    9 2   
    14    7   25 1   
    15    7   26 1   
    16    7   27 1   
    17    8    9 1   
    18    8   10 2   
    19   10   11 1   
    20   10   28 1   
    21   11   12 ar  
    22   11   19 ar  
    23   12   13 ar  
    24   12   29 1   
    25   13   14 1   
    26   13   15 ar  
    27   15   16 1   
    28   15   17 ar  
    29   16   30 1   
    30   17   18 1   
    31   17   19 ar  
    32   19   31 1   
@<TRIPOS>SUBSTRUCTURE
     1 2ZY         1 TEMP              0 ****  ****    0 ROOT
