@<TRIPOS>MOLECULE
2ZY
   31    32     1     0     0
SMALL
bcc


@<TRIPOS>ATOM
      1 O18         0.0490   -0.3970   -0.1760 o         1 2ZY     -0.564500
      2 C15         1.2610   -0.2060   -0.0830 c         1 2ZY      0.682700
      3 N14         1.9860   -0.0710    1.1410 n         1 2ZY     -0.449300
      4 C16         1.4320   -0.1530    2.4370 c3        1 2ZY      0.088000
      5 C19         1.5140   -1.5850    3.1050 c3        1 2ZY      0.593900
      6 C13         3.3550    0.1810    0.7980 cc        1 2ZY      0.468900
      7 C17         4.3880    0.4010    1.8490 c3        1 2ZY     -0.137400
      8 C11         2.3160   -0.0290   -1.1580 cd        1 2ZY     -0.001600
      9 N12         3.5700    0.2070   -0.5140 nd        1 2ZY     -0.584300
     10 C10         2.0170   -0.0790   -2.4700 ce        1 2ZY      0.012800
     11 C2          2.9250    0.0900   -3.5880 ca        1 2ZY     -0.066800
     12 C1          2.3960    0.6070   -4.7830 ca        1 2ZY     -0.108500
     13 C6          3.2140    0.7970   -5.9040 ca        1 2ZY      0.082400
     14 F8          2.7000    1.3060   -7.0460 f         1 2ZY     -0.127400
     15 C5          4.5860    0.4510   -5.8370 ca        1 2ZY      0.079100
     16 O9          5.3450    0.6510   -6.9590 oh        1 2ZY     -0.469100
     17 C4          5.1040   -0.0830   -4.6360 ca        1 2ZY      0.082400
     18 F7          6.4170   -0.4220   -4.5820 f         1 2ZY     -0.127400
     19 C3          4.2760   -0.2610   -3.5170 ca        1 2ZY     -0.108500
     20 F20         0.9500   -2.5950    2.3770 f         1 2ZY     -0.233967
     21 F21         2.7900   -2.0060    3.3770 f         1 2ZY     -0.233967
     22 F22         0.8710   -1.6090    4.3160 f         1 2ZY     -0.233967
     23 H1          0.3330    0.1000    2.3870 h1        1 2ZY      0.099200
     24 H2          1.9640    0.5460    3.1400 h1        1 2ZY      0.099200
     25 H4          5.4010    0.5090    1.3860 hc        1 2ZY      0.075700
     26 H5          4.4040   -0.4660    2.5570 hc        1 2ZY      0.075700
     27 H6          4.1510    1.3350    2.4180 hc        1 2ZY      0.075700
     28 H7          0.9540   -0.2470   -2.7400 ha        1 2ZY      0.156000
     29 H9          1.3310    0.8760   -4.8500 ha        1 2ZY      0.169000
     30 H10         6.2530    0.3700   -6.7610 ho        1 2ZY      0.436000
     31 H11         4.7130   -0.6840   -2.5990 ha        1 2ZY      0.169000
@<TRIPOS>BOND
     1    1    2 2   
     2    2    3 1   
     3    2    8 1   
     4    3    4 1   
     5    3    6 1   
     6    4    5 1   
     7    4   23 1   
     8    4   24 1   
     9    5   20 1   
    10    5   21 1   
    11    5   22 1   
    12    6    7 1   
    13    6    9 2   
    14    7   25 1   
    15    7   26 1   
    16    7   27 1   
    17    8    9 1   
    18    8   10 2   
    19   10   11 1   
    20   10   28 1   
    21   11   12 ar  
    22   11   19 ar  
    23   12   13 ar  
    24   12   29 1   
    25   13   14 1   
    26   13   15 ar  
    27   15   16 1   
    28   15   17 ar  
    29   16   30 1   
    30   17   18 1   
    31   17   19 ar  
    32   19   31 1   
@<TRIPOS>SUBSTRUCTURE
     1 2ZY         1 TEMP              0 ****  ****    0 ROOT
