@<TRIPOS>MOLECULE
2ZZ
   27    28     1     0     0
SMALL
bcc


@<TRIPOS>ATOM
      1 O18         0.0850   -0.4590   -0.1420 o         1 2ZZ     -0.585500
      2 C15         1.2930   -0.2280   -0.0440 c         1 2ZZ      0.676700
      3 N14         2.0090   -0.0440    1.1690 n         1 2ZZ     -0.442300
      4 C16         1.4730   -0.0870    2.4840 c3        1 2ZZ      0.096300
      5 C13         3.3720    0.2020    0.8250 cc        1 2ZZ      0.459900
      6 C17         4.3950    0.4410    1.8820 c3        1 2ZZ     -0.128400
      7 C11         2.3490   -0.0700   -1.1260 cd        1 2ZZ     -0.000600
      8 N12         3.6010    0.1910   -0.4870 nd        1 2ZZ     -0.596300
      9 C10         2.0500   -0.1570   -2.4370 ce        1 2ZZ     -0.000200
     10 C2          2.9540   -0.0110   -3.5610 ca        1 2ZZ     -0.073800
     11 C1          2.4340    0.4890   -4.7680 ca        1 2ZZ     -0.098000
     12 C6          3.2590    0.6450   -5.8770 ca        1 2ZZ     -0.139000
     13 C5          4.6070    0.2950   -5.8070 ca        1 2ZZ     -0.089000
     14 C4          5.1280   -0.2150   -4.6160 ca        1 2ZZ     -0.036900
     15 BR7         6.9360   -0.6990   -4.5200 br        1 2ZZ     -0.087100
     16 C3          4.3080   -0.3670   -3.4940 ca        1 2ZZ     -0.059000
     17 H1          1.6320    0.8970    3.0040 h1        1 2ZZ      0.050033
     18 H2          1.9750   -0.8940    3.0840 h1        1 2ZZ      0.050033
     19 H3          0.3720   -0.3000    2.4210 h1        1 2ZZ      0.050033
     20 H5          4.4510   -0.4470    2.5600 hc        1 2ZZ      0.069033
     21 H6          5.4010    0.6150    1.4250 hc        1 2ZZ      0.069033
     22 H7          4.1100    1.3390    2.4860 hc        1 2ZZ      0.069033
     23 H8          0.9890   -0.3400   -2.7000 ha        1 2ZZ      0.151000
     24 H10         1.3700    0.7640   -4.8320 ha        1 2ZZ      0.138000
     25 H11         2.8480    1.0460   -6.8160 ha        1 2ZZ      0.140000
     26 H12         5.2510    0.4210   -6.6920 ha        1 2ZZ      0.147000
     27 H13         4.7250   -0.7760   -2.5590 ha        1 2ZZ      0.170000
@<TRIPOS>BOND
     1    1    2 2   
     2    2    3 1   
     3    2    7 1   
     4    3    4 1   
     5    3    5 1   
     6    4   17 1   
     7    4   18 1   
     8    4   19 1   
     9    5    6 1   
    10    5    8 2   
    11    6   20 1   
    12    6   21 1   
    13    6   22 1   
    14    7    8 1   
    15    7    9 2   
    16    9   10 1   
    17    9   23 1   
    18   10   11 ar  
    19   10   16 ar  
    20   11   12 ar  
    21   11   24 1   
    22   12   13 ar  
    23   12   25 1   
    24   13   14 ar  
    25   13   26 1   
    26   14   15 1   
    27   14   16 ar  
    28   16   27 1   
@<TRIPOS>SUBSTRUCTURE
     1 2ZZ         1 TEMP              0 ****  ****    0 ROOT
