@<TRIPOS>MOLECULE
2ZZ
   27    28     1     0     0
SMALL
bcc


@<TRIPOS>ATOM
      1 O18         0.0770   -0.4380   -0.1530 o         1 2ZZ     -0.585500
      2 C15         1.2870   -0.2230   -0.0500 c         1 2ZZ      0.676700
      3 N14         2.0030   -0.0650    1.1650 n         1 2ZZ     -0.442300
      4 C16         1.4650   -0.1160    2.4790 c3        1 2ZZ      0.096300
      5 C13         3.3700    0.1690    0.8270 cc        1 2ZZ      0.459900
      6 C17         4.3950    0.3810    1.8880 c3        1 2ZZ     -0.128400
      7 C11         2.3460   -0.0650   -1.1290 cd        1 2ZZ     -0.000600
      8 N12         3.6000    0.1720   -0.4850 nd        1 2ZZ     -0.596300
      9 C10         2.0490   -0.1310   -2.4410 ce        1 2ZZ     -0.000200
     10 C2          2.9560    0.0190   -3.5620 ca        1 2ZZ     -0.073800
     11 C1          2.4440    0.5410   -4.7630 ca        1 2ZZ     -0.098000
     12 C6          3.2730    0.7010   -5.8690 ca        1 2ZZ     -0.139000
     13 C5          4.6160    0.3330   -5.8020 ca        1 2ZZ     -0.089000
     14 C4          5.1280   -0.2000   -4.6170 ca        1 2ZZ     -0.036900
     15 BR7         6.9300   -0.7100   -4.5260 br        1 2ZZ     -0.087100
     16 C3          4.3050   -0.3570   -3.4980 ca        1 2ZZ     -0.059000
     17 H1          0.3620   -0.3190    2.4130 h1        1 2ZZ      0.050033
     18 H2          1.9580   -0.9340    3.0720 h1        1 2ZZ      0.050033
     19 H3          1.6320    0.8610    3.0100 h1        1 2ZZ      0.050033
     20 H5          4.4420   -0.5180    2.5510 hc        1 2ZZ      0.069033
     21 H6          4.1180    1.2720    2.5060 hc        1 2ZZ      0.069033
     22 H7          5.4020    0.5520    1.4350 hc        1 2ZZ      0.069033
     23 H8          0.9850   -0.2970   -2.7080 ha        1 2ZZ      0.151000
     24 H10         1.3840    0.8310   -4.8240 ha        1 2ZZ      0.138000
     25 H11         2.8680    1.1190   -6.8030 ha        1 2ZZ      0.140000
     26 H12         5.2630    0.4620   -6.6840 ha        1 2ZZ      0.147000
     27 H13         4.7150   -0.7830   -2.5680 ha        1 2ZZ      0.170000
@<TRIPOS>BOND
     1    1    2 2   
     2    2    3 1   
     3    2    7 1   
     4    3    4 1   
     5    3    5 1   
     6    4   17 1   
     7    4   18 1   
     8    4   19 1   
     9    5    6 1   
    10    5    8 2   
    11    6   20 1   
    12    6   21 1   
    13    6   22 1   
    14    7    8 1   
    15    7    9 2   
    16    9   10 1   
    17    9   23 1   
    18   10   11 ar  
    19   10   16 ar  
    20   11   12 ar  
    21   11   24 1   
    22   12   13 ar  
    23   12   25 1   
    24   13   14 ar  
    25   13   26 1   
    26   14   15 1   
    27   14   16 ar  
    28   16   27 1   
@<TRIPOS>SUBSTRUCTURE
     1 2ZZ         1 TEMP              0 ****  ****    0 ROOT
