@<TRIPOS>MOLECULE
2ZZ
   27    28     1     0     0
SMALL
bcc


@<TRIPOS>ATOM
      1 O18         0.0810   -0.4510   -0.1480 o         1 2ZZ     -0.585500
      2 C15         1.2890   -0.2240   -0.0470 c         1 2ZZ      0.676700
      3 N14         2.0040   -0.0440    1.1670 n         1 2ZZ     -0.442300
      4 C16         1.4650   -0.0870    2.4810 c3        1 2ZZ      0.096300
      5 C13         3.3680    0.1980    0.8260 cc        1 2ZZ      0.459900
      6 C17         4.3900    0.4330    1.8850 c3        1 2ZZ     -0.128400
      7 C11         2.3480   -0.0680   -1.1280 cd        1 2ZZ     -0.000600
      8 N12         3.5990    0.1880   -0.4860 nd        1 2ZZ     -0.596300
      9 C10         2.0510   -0.1520   -2.4390 ce        1 2ZZ     -0.000200
     10 C2          2.9580   -0.0070   -3.5610 ca        1 2ZZ     -0.073800
     11 C1          2.4420    0.4960   -4.7690 ca        1 2ZZ     -0.098000
     12 C6          3.2690    0.6510   -5.8760 ca        1 2ZZ     -0.139000
     13 C5          4.6160    0.2960   -5.8040 ca        1 2ZZ     -0.089000
     14 C4          5.1330   -0.2170   -4.6120 ca        1 2ZZ     -0.036900
     15 Br7         6.9390   -0.7080   -4.5150 br        1 2ZZ     -0.087100
     16 C3          4.3100   -0.3690   -3.4920 ca        1 2ZZ     -0.059000
     17 H1          0.3640   -0.2990    2.4160 h1        1 2ZZ      0.050033
     18 H2          1.9650   -0.8940    3.0820 h1        1 2ZZ      0.050033
     19 H3          1.6240    0.8970    3.0010 h1        1 2ZZ      0.050033
     20 H5          4.4440   -0.4580    2.5600 hc        1 2ZZ      0.069033
     21 H6          4.1050    1.3290    2.4910 hc        1 2ZZ      0.069033
     22 H7          5.3970    0.6070    1.4300 hc        1 2ZZ      0.069033
     23 H8          0.9900   -0.3320   -2.7050 ha        1 2ZZ      0.151000
     24 H10         1.3780    0.7740   -4.8340 ha        1 2ZZ      0.138000
     25 H11         2.8610    1.0540   -6.8150 ha        1 2ZZ      0.140000
     26 H12         5.2610    0.4220   -6.6880 ha        1 2ZZ      0.147000
     27 H13         4.7240   -0.7800   -2.5570 ha        1 2ZZ      0.170000
@<TRIPOS>BOND
     1    1    2 2   
     2    2    3 1   
     3    2    7 1   
     4    3    4 1   
     5    3    5 1   
     6    4   17 1   
     7    4   18 1   
     8    4   19 1   
     9    5    6 1   
    10    5    8 2   
    11    6   20 1   
    12    6   21 1   
    13    6   22 1   
    14    7    8 1   
    15    7    9 2   
    16    9   10 1   
    17    9   23 1   
    18   10   11 ar  
    19   10   16 ar  
    20   11   12 ar  
    21   11   24 1   
    22   12   13 ar  
    23   12   25 1   
    24   13   14 ar  
    25   13   26 1   
    26   14   15 1   
    27   14   16 ar  
    28   16   27 1   
@<TRIPOS>SUBSTRUCTURE
     1 2ZZ         1 TEMP              0 ****  ****    0 ROOT
